*SPEF "ieee 1481-1999"
*DESIGN "inverter"
*DATE "16:11:16 Friday April 25, 2025"
*VENDOR "The OpenROAD Project"
*PROGRAM "OpenROAD"
*VERSION "b16bda7e82721d10566ff7e2b68f1ff0be9f9e38"
*DESIGN_FLOW "NAME_SCOPE LOCAL" "PIN_CAP NONE"
*DIVIDER /
*DELIMITER :
*BUS_DELIMITER []
*T_UNIT 1 NS
*C_UNIT 1 PF
*R_UNIT 1 OHM
*L_UNIT 1 HENRY

*NAME_MAP
*3 in[0]
*4 in[1]
*5 in[2]
*6 in[3]
*7 in[4]
*8 in[5]
*9 in[6]
*10 in[7]
*11 out[0]
*12 out[1]
*13 out[2]
*14 out[3]
*15 out[4]
*16 out[5]
*17 out[6]
*18 out[7]
*19 _00_
*20 _01_
*21 _02_
*22 _03_
*23 _04_
*24 _05_
*25 _06_
*26 _07_
*27 _08_
*28 _09_
*29 net1
*30 net10
*31 net11
*32 net12
*33 net13
*34 net14
*35 net15
*36 net16
*37 net2
*38 net3
*39 net4
*40 net5
*41 net6
*42 net7
*43 net8
*44 net9
*45 FILLER_0_0_16
*46 FILLER_0_0_29
*47 FILLER_0_0_37
*48 FILLER_0_0_9
*49 FILLER_0_10_18
*50 FILLER_0_10_26
*51 FILLER_0_10_29
*52 FILLER_0_10_42
*53 FILLER_0_10_6
*54 FILLER_0_11_18
*55 FILLER_0_11_30
*56 FILLER_0_11_42
*57 FILLER_0_11_6
*58 FILLER_0_12_13
*59 FILLER_0_12_27
*60 FILLER_0_12_29
*61 FILLER_0_12_37
*62 FILLER_0_1_24
*63 FILLER_0_1_36
*64 FILLER_0_1_9
*65 FILLER_0_2_15
*66 FILLER_0_2_27
*67 FILLER_0_2_29
*68 FILLER_0_2_3
*69 FILLER_0_2_41
*70 FILLER_0_2_47
*71 FILLER_0_3_18
*72 FILLER_0_3_30
*73 FILLER_0_3_39
*74 FILLER_0_3_43
*75 FILLER_0_3_6
*76 FILLER_0_4_15
*77 FILLER_0_4_27
*78 FILLER_0_4_29
*79 FILLER_0_4_3
*80 FILLER_0_4_41
*81 FILLER_0_4_47
*82 FILLER_0_5_18
*83 FILLER_0_5_23
*84 FILLER_0_5_35
*85 FILLER_0_5_43
*86 FILLER_0_5_6
*87 FILLER_0_6_15
*88 FILLER_0_6_29
*89 FILLER_0_6_3
*90 FILLER_0_6_40
*91 FILLER_0_7_13
*92 FILLER_0_7_21
*93 FILLER_0_7_26
*94 FILLER_0_7_3
*95 FILLER_0_7_38
*96 FILLER_0_7_46
*97 FILLER_0_7_7
*98 FILLER_0_8_14
*99 FILLER_0_8_26
*100 FILLER_0_8_29
*101 FILLER_0_8_39
*102 FILLER_0_8_43
*103 FILLER_0_8_6
*104 FILLER_0_9_15
*105 FILLER_0_9_3
*106 FILLER_0_9_32
*107 FILLER_0_9_44
*108 PHY_EDGE_ROW_0_Left_13
*109 PHY_EDGE_ROW_0_Right_0
*110 PHY_EDGE_ROW_10_Left_23
*111 PHY_EDGE_ROW_10_Right_10
*112 PHY_EDGE_ROW_11_Left_24
*113 PHY_EDGE_ROW_11_Right_11
*114 PHY_EDGE_ROW_12_Left_25
*115 PHY_EDGE_ROW_12_Right_12
*116 PHY_EDGE_ROW_1_Left_14
*117 PHY_EDGE_ROW_1_Right_1
*118 PHY_EDGE_ROW_2_Left_15
*119 PHY_EDGE_ROW_2_Right_2
*120 PHY_EDGE_ROW_3_Left_16
*121 PHY_EDGE_ROW_3_Right_3
*122 PHY_EDGE_ROW_4_Left_17
*123 PHY_EDGE_ROW_4_Right_4
*124 PHY_EDGE_ROW_5_Left_18
*125 PHY_EDGE_ROW_5_Right_5
*126 PHY_EDGE_ROW_6_Left_19
*127 PHY_EDGE_ROW_6_Right_6
*128 PHY_EDGE_ROW_7_Left_20
*129 PHY_EDGE_ROW_7_Right_7
*130 PHY_EDGE_ROW_8_Left_21
*131 PHY_EDGE_ROW_8_Right_8
*132 PHY_EDGE_ROW_9_Left_22
*133 PHY_EDGE_ROW_9_Right_9
*134 TAP_TAPCELL_ROW_0_26
*135 TAP_TAPCELL_ROW_10_31
*136 TAP_TAPCELL_ROW_12_32
*137 TAP_TAPCELL_ROW_2_27
*138 TAP_TAPCELL_ROW_4_28
*139 TAP_TAPCELL_ROW_6_29
*140 TAP_TAPCELL_ROW_8_30
*141 _10_
*142 _11_
*143 _12_
*144 _13_
*145 _14_
*146 _15_
*147 _16_
*148 _17_
*149 _18_
*150 _19_
*151 _20_
*152 _21_
*153 _22_
*154 _23_
*155 _24_
*156 _25_
*157 _26_
*158 _27_
*159 input1
*160 input2
*161 input3
*162 input4
*163 input5
*164 input6
*165 input7
*166 input8
*167 output10
*168 output11
*169 output12
*170 output13
*171 output14
*172 output15
*173 output16
*174 output9

*PORTS
in[0] I
in[1] I
in[2] I
in[3] I
in[4] I
in[5] I
in[6] I
in[7] I
out[0] O
out[1] O
out[2] O
out[3] O
out[4] O
out[5] O
out[6] O
out[7] O

*D_NET *3 0.000986291
*CONN
*P in[0] I
*I *159:A I *D sky130_fd_sc_hd__dlymetal6s2s_1
*CAP
1 in[0] 0.000493145
2 *159:A 0.000493145
3 *159:A *160:A 0
*RES
1 in[0] *159:A 9.94677 
*END

*D_NET *4 0.000708939
*CONN
*P in[1] I
*I *160:A I *D sky130_fd_sc_hd__buf_1
*CAP
1 in[1] 0.00035447
2 *160:A 0.00035447
3 *160:A *161:A 0
4 *159:A *160:A 0
*RES
1 in[1] *160:A 8.3643 
*END

*D_NET *5 0.000531065
*CONN
*P in[2] I
*I *161:A I *D sky130_fd_sc_hd__buf_1
*CAP
1 in[2] 0.000265532
2 *161:A 0.000265532
3 *161:A *162:A 0
4 *160:A *161:A 0
*RES
1 in[2] *161:A 6.8343 
*END

*D_NET *6 0.000645774
*CONN
*P in[3] I
*I *162:A I *D sky130_fd_sc_hd__clkbuf_1
*CAP
1 in[3] 0.000322887
2 *162:A 0.000322887
3 *162:A *163:A 0
4 *162:A *41:23 0
5 *161:A *162:A 0
*RES
1 in[3] *162:A 7.8543 
*END

*D_NET *7 0.000569745
*CONN
*P in[4] I
*I *163:A I *D sky130_fd_sc_hd__buf_1
*CAP
1 in[4] 0.000283048
2 *163:A 0.000283048
3 *163:A *164:A 0
4 *163:A *40:8 3.64998e-06
5 *163:A *40:23 0
6 *162:A *163:A 0
*RES
1 in[4] *163:A 7.0893 
*END

*D_NET *8 0.000674236
*CONN
*P in[5] I
*I *164:A I *D sky130_fd_sc_hd__buf_1
*CAP
1 in[5] 0.000337118
2 *164:A 0.000337118
3 *164:A *152:A1 0
4 *164:A *165:A 0
5 *163:A *164:A 0
*RES
1 in[5] *164:A 8.1093 
*END

*D_NET *9 0.000523624
*CONN
*P in[6] I
*I *165:A I *D sky130_fd_sc_hd__buf_1
*CAP
1 in[6] 0.000261812
2 *165:A 0.000261812
3 *165:A *166:A 0
4 *164:A *165:A 0
*RES
1 in[6] *165:A 6.8343 
*END

*D_NET *10 0.00115517
*CONN
*P in[7] I
*I *166:A I *D sky130_fd_sc_hd__buf_1
*CAP
1 in[7] 0.000577586
2 *166:A 0.000577586
3 *165:A *166:A 0
*RES
1 in[7] *166:A 10.6316 
*END

*D_NET *11 0.00109227
*CONN
*P out[0] O
*I *174:X O *D sky130_fd_sc_hd__buf_2
*CAP
1 out[0] 0.000546133
2 *174:X 0.000546133
3 out[0] out[1] 0
*RES
1 *174:X out[0] 9.66983 
*END

*D_NET *12 0.000411239
*CONN
*P out[1] O
*I *167:X O *D sky130_fd_sc_hd__buf_2
*CAP
1 out[1] 0.00020562
2 *167:X 0.00020562
3 out[1] out[2] 0
4 out[0] out[1] 0
*RES
1 *167:X out[1] 4.84677 
*END

*D_NET *13 0.000413408
*CONN
*P out[2] O
*I *168:X O *D sky130_fd_sc_hd__buf_2
*CAP
1 out[2] 0.000200848
2 *168:X 0.000200848
3 out[2] out[3] 0
4 out[2] *168:A 1.17114e-05
5 out[1] out[2] 0
*RES
1 *168:X out[2] 4.84677 
*END

*D_NET *14 0.000544434
*CONN
*P out[3] O
*I *169:X O *D sky130_fd_sc_hd__buf_2
*CAP
1 out[3] 0.000272217
2 *169:X 0.000272217
3 out[3] out[4] 0
4 out[3] *167:A 0
5 out[3] *169:A 0
6 out[2] out[3] 0
*RES
1 *169:X out[3] 5.86677 
*END

*D_NET *15 0.000413408
*CONN
*P out[4] O
*I *170:X O *D sky130_fd_sc_hd__buf_2
*CAP
1 out[4] 0.000200848
2 *170:X 0.000200848
3 out[4] out[5] 0
4 out[4] *170:A 1.17114e-05
5 out[3] out[4] 0
*RES
1 *170:X out[4] 4.84677 
*END

*D_NET *16 0.00054695
*CONN
*P out[5] O
*I *171:X O *D sky130_fd_sc_hd__buf_2
*CAP
1 out[5] 0.000251457
2 *171:X 0.000251457
3 out[5] out[6] 0
4 out[5] *173:A 4.40358e-05
5 out[4] out[5] 0
*RES
1 *171:X out[5] 5.86677 
*END

*D_NET *17 0.000710986
*CONN
*P out[6] O
*I *172:X O *D sky130_fd_sc_hd__buf_2
*CAP
1 out[6] 0.000355493
2 *172:X 0.000355493
3 out[6] out[7] 0
4 out[5] out[6] 0
*RES
1 *172:X out[6] 5.19637 
*END

*D_NET *18 0.000971234
*CONN
*P out[7] O
*I *173:X O *D sky130_fd_sc_hd__clkbuf_4
*CAP
1 out[7] 0.000485617
2 *173:X 0.000485617
3 out[6] out[7] 0
*RES
1 *173:X out[7] 10.1435 
*END

*D_NET *19 0.00187425
*CONN
*I *142:B I *D sky130_fd_sc_hd__xnor2_1
*I *157:A I *D sky130_fd_sc_hd__nor2_1
*I *141:Y O *D sky130_fd_sc_hd__nor2_1
*CAP
1 *142:B 0.000188472
2 *157:A 0
3 *141:Y 0.000231288
4 *19:10 0.000419761
5 *142:B *146:A 0
6 *142:B *29:41 0.000340521
7 *142:B *37:25 6.66925e-05
8 *19:10 *157:B 5.73518e-05
9 *19:10 *29:41 0.000113654
10 *19:10 *29:47 0.000253443
11 *19:10 *37:25 0.000203067
*RES
1 *141:Y *19:10 8.76 
2 *19:10 *157:A 3.6 
3 *19:10 *142:B 8.085 
*END

*D_NET *20 0.00133335
*CONN
*I *145:A_N I *D sky130_fd_sc_hd__and2b_1
*I *143:X O *D sky130_fd_sc_hd__o31a_1
*CAP
1 *145:A_N 0.000238344
2 *143:X 0.000238344
3 *145:A_N *145:B 0
4 *145:A_N *29:16 0.000463893
5 *145:A_N *29:41 0.000121437
6 *145:A_N *37:12 0.000271334
*RES
1 *143:X *145:A_N 13.545 
*END

*D_NET *21 0.00753496
*CONN
*I *148:B I *D sky130_fd_sc_hd__and2_1
*I *145:B I *D sky130_fd_sc_hd__and2b_1
*I *151:D I *D sky130_fd_sc_hd__or4_1
*I *147:B I *D sky130_fd_sc_hd__nor2_1
*I *152:A3 I *D sky130_fd_sc_hd__o31ai_1
*I *144:X O *D sky130_fd_sc_hd__or4_2
*CAP
1 *148:B 0.0001427
2 *145:B 0.000432473
3 *151:D 0.000119129
4 *147:B 3.71022e-05
5 *152:A3 0.000199349
6 *144:X 5.8417e-05
7 *21:49 0.000696497
8 *21:34 0.000518754
9 *21:10 0.000750339
10 *21:6 0.000850605
11 *145:B *146:A 0
12 *145:B *29:16 0
13 *145:B *37:12 6.73665e-05
14 *147:B *153:B 0.000162332
15 *147:B *41:23 0.000156842
16 *148:B *148:A 8.40269e-05
17 *148:B *149:B 4.80285e-05
18 *151:D *148:A 5.57182e-05
19 *151:D *151:B 0.000123225
20 *151:D *151:C 0.000160641
21 *152:A3 *151:C 0
22 *152:A3 *152:A2 0.000298449
23 *152:A3 *153:B 0.000884368
24 *152:A3 *41:23 0.000639228
25 *152:A3 *42:14 9.50342e-06
26 *21:6 *37:35 1.85674e-05
27 *21:10 *144:B 8.23457e-05
28 *21:10 *144:D 2.49909e-05
29 *21:10 *37:35 4.29198e-05
30 *21:34 *144:B 1.08758e-05
31 *21:34 *146:A 8.02822e-05
32 *21:34 *149:A 0.00011686
33 *21:34 *149:B 3.98782e-05
34 *21:34 *155:B 0.000137578
35 *21:34 *25:10 0.00013521
36 *21:34 *40:40 7.09999e-05
37 *21:49 *146:A 0.000172964
38 *21:49 *148:A 0
39 *21:49 *149:B 0.000106393
40 *145:A_N *145:B 0
*RES
1 *144:X *21:6 2.725 
2 *21:6 *21:10 9.005 
3 *21:10 *152:A3 14.16 
4 *21:10 *147:B 5.49 
5 *21:6 *21:34 8.36 
6 *21:34 *151:D 6.39 
7 *21:34 *21:49 5.675 
8 *21:49 *145:B 12.815 
9 *21:49 *148:B 4.12 
*END

*D_NET *22 0.00252825
*CONN
*I *146:A I *D sky130_fd_sc_hd__clkbuf_1
*I *145:X O *D sky130_fd_sc_hd__and2b_1
*CAP
1 *146:A 0.000938031
2 *145:X 0.000938031
3 *146:A *148:A 0
4 *146:A *149:A 5.98004e-06
5 *146:A *155:A 1.71013e-05
6 *146:A *155:B 0.000159964
7 *146:A *173:A 2.75145e-05
8 *146:A *174:A 0
9 *146:A *25:10 0.000128353
10 *146:A *29:41 6.00291e-05
11 *146:A *29:47 0
12 *146:A *37:12 0
13 *142:B *146:A 0
14 *145:B *146:A 0
15 *21:34 *146:A 8.02822e-05
16 *21:49 *146:A 0.000172964
*RES
1 *145:X *146:A 23.655 
*END

*D_NET *23 0.00395486
*CONN
*I *149:A I *D sky130_fd_sc_hd__nor2_1
*I *150:B I *D sky130_fd_sc_hd__xnor2_1
*I *147:Y O *D sky130_fd_sc_hd__nor2_1
*CAP
1 *149:A 0.000527659
2 *150:B 0.000150494
3 *147:Y 9.36305e-05
4 *23:6 0.000771783
5 *149:A *149:B 0.000382871
6 *149:A *153:A 0.000787417
7 *149:A *154:A 0.000345792
8 *149:A *155:A 0.000523836
9 *149:A *155:B 1.26548e-05
10 *149:A *40:40 2.39856e-05
11 *150:B *151:C 7.41097e-05
12 *150:B *153:B 2.03578e-05
13 *150:B *41:23 0
14 *23:6 *153:A 8.52845e-05
15 *23:6 *153:B 2.01565e-05
16 *23:6 *40:40 1.19928e-05
17 *146:A *149:A 5.98004e-06
18 *21:34 *149:A 0.00011686
*RES
1 *147:Y *23:6 3.085 
2 *23:6 *150:B 8.255 
3 *23:6 *149:A 21.395 
*END

*D_NET *24 0.00227641
*CONN
*I *149:B I *D sky130_fd_sc_hd__nor2_1
*I *148:X O *D sky130_fd_sc_hd__and2_1
*CAP
1 *149:B 0.000457482
2 *148:X 0.000457482
3 *149:B *148:A 0.000157864
4 *149:B *171:A 0.000479742
5 *149:B *174:A 1.14559e-05
6 *149:B *40:40 0.00013521
7 *148:B *149:B 4.80285e-05
8 *149:A *149:B 0.000382871
9 *21:34 *149:B 3.98782e-05
10 *21:49 *149:B 0.000106393
*RES
1 *148:X *149:B 21.615 
*END

*D_NET *25 0.00276934
*CONN
*I *153:A I *D sky130_fd_sc_hd__and2_1
*I *155:B I *D sky130_fd_sc_hd__xor2_1
*I *151:X O *D sky130_fd_sc_hd__or4_1
*CAP
1 *153:A 0.000205689
2 *155:B 4.68749e-05
3 *151:X 0.000104827
4 *25:10 0.000357391
5 *153:A *153:B 8.52845e-05
6 *153:A *40:40 0.00043879
7 *25:10 *171:A 8.40269e-05
8 *146:A *155:B 0.000159964
9 *146:A *25:10 0.000128353
10 *149:A *153:A 0.000787417
11 *149:A *155:B 1.26548e-05
12 *21:34 *155:B 0.000137578
13 *21:34 *25:10 0.00013521
14 *23:6 *153:A 8.52845e-05
*RES
1 *151:X *25:10 6.03 
2 *25:10 *155:B 5.49 
3 *25:10 *153:A 11.64 
*END

*D_NET *26 0.00227044
*CONN
*I *153:B I *D sky130_fd_sc_hd__and2_1
*I *152:Y O *D sky130_fd_sc_hd__o31ai_1
*CAP
1 *153:B 0.000488147
2 *152:Y 0.000488147
3 *153:B *151:C 0
4 *153:B *40:40 0.000121643
5 *147:B *153:B 0.000162332
6 *150:B *153:B 2.03578e-05
7 *152:A3 *153:B 0.000884368
8 *153:A *153:B 8.52845e-05
9 *23:6 *153:B 2.01565e-05
*RES
1 *152:Y *153:B 20.175 
*END

*D_NET *27 0.00324182
*CONN
*I *154:A I *D sky130_fd_sc_hd__clkbuf_1
*I *153:X O *D sky130_fd_sc_hd__and2_1
*CAP
1 *154:A 0.000487515
2 *153:X 0.000487515
3 *154:A *144:C 0.000116158
4 *154:A *144:D 0.000137578
5 *154:A *156:A 0.000729192
6 *154:A *156:B 0.000346268
7 *154:A *157:B 8.86899e-05
8 *154:A *29:51 0.000382924
9 *154:A *37:35 0.000120186
10 *149:A *154:A 0.000345792
*RES
1 *153:X *154:A 21.99 
*END

*D_NET *28 0.00315798
*CONN
*I *157:B I *D sky130_fd_sc_hd__nor2_1
*I *156:X O *D sky130_fd_sc_hd__and2_1
*CAP
1 *157:B 0.000715579
2 *156:X 0.000715579
3 *157:B *144:C 0.000182356
4 *157:B *155:A 0.000309799
5 *157:B *156:B 0.000476697
6 *157:B *29:47 1.73877e-05
7 *157:B *29:51 0.000389101
8 *157:B *37:25 0.000205435
9 *154:A *157:B 8.86899e-05
10 *19:10 *157:B 5.73518e-05
*RES
1 *156:X *157:B 23.94 
*END

*D_NET *29 0.00801906
*CONN
*I *144:B I *D sky130_fd_sc_hd__or4_2
*I *141:B I *D sky130_fd_sc_hd__nor2_1
*I *158:A I *D sky130_fd_sc_hd__clkbuf_1
*I *156:B I *D sky130_fd_sc_hd__and2_1
*I *143:A2 I *D sky130_fd_sc_hd__o31a_1
*I *159:X O *D sky130_fd_sc_hd__dlymetal6s2s_1
*CAP
1 *144:B 6.68868e-05
2 *141:B 0
3 *158:A 0.000347535
4 *156:B 0.000304339
5 *143:A2 1.77753e-05
6 *159:X 0.000621376
7 *29:51 0.000731113
8 *29:47 0.000313174
9 *29:41 0.000635508
10 *29:16 0.000973839
11 *143:A2 *142:A 0
12 *156:B *155:A 4.35348e-05
13 *156:B *156:A 0.000371104
14 *158:A *170:A 3.72916e-05
15 *29:16 *143:A3 1.47347e-05
16 *29:16 *143:B1 1.08758e-05
17 *29:41 *142:A 1.19928e-05
18 *29:41 *143:A3 1.12578e-05
19 *29:41 *151:C 4.41506e-05
20 *29:41 *171:A 8.40213e-05
21 *29:41 *37:25 0.000309194
22 *29:41 *38:10 1.07797e-05
23 *29:47 *155:A 0
24 *142:B *29:41 0.000340521
25 *145:A_N *29:16 0.000463893
26 *145:A_N *29:41 0.000121437
27 *145:B *29:16 0
28 *146:A *29:41 6.00291e-05
29 *146:A *29:47 0
30 *154:A *156:B 0.000346268
31 *154:A *29:51 0.000382924
32 *157:B *156:B 0.000476697
33 *157:B *29:47 1.73877e-05
34 *157:B *29:51 0.000389101
35 *19:10 *29:41 0.000113654
36 *19:10 *29:47 0.000253443
37 *21:10 *144:B 8.23457e-05
38 *21:34 *144:B 1.08758e-05
*RES
1 *159:X *29:16 16.805 
2 *29:16 *143:A2 1.96 
3 *29:16 *29:41 14.91 
4 *29:41 *29:47 6.14 
5 *29:47 *29:51 6.44 
6 *29:51 *156:B 13.035 
7 *29:51 *158:A 8.895 
8 *29:47 *141:B 1.6 
9 *29:41 *144:B 4.395 
*END

*D_NET *30 0.00282596
*CONN
*I *167:A I *D sky130_fd_sc_hd__buf_2
*I *157:Y O *D sky130_fd_sc_hd__nor2_1
*CAP
1 *167:A 0.00102574
2 *157:Y 0.00102574
3 *167:A *168:A 4.70343e-05
4 *167:A *169:A 6.36578e-05
5 *167:A *174:A 0.000287845
6 *167:A *40:40 0.000375944
7 out[3] *167:A 0
*RES
1 *157:Y *167:A 23.85 
*END

*D_NET *31 0.00107589
*CONN
*I *168:A I *D sky130_fd_sc_hd__buf_2
*I *142:Y O *D sky130_fd_sc_hd__xnor2_1
*CAP
1 *168:A 0.000508573
2 *142:Y 0.000508573
3 out[2] *168:A 1.17114e-05
4 *167:A *168:A 4.70343e-05
*RES
1 *142:Y *168:A 13.17 
*END

*D_NET *32 0.000859789
*CONN
*I *169:A I *D sky130_fd_sc_hd__buf_2
*I *146:X O *D sky130_fd_sc_hd__clkbuf_1
*CAP
1 *169:A 0.000249192
2 *146:X 0.000249192
3 *169:A *174:A 0.000297747
4 out[3] *169:A 0
5 *167:A *169:A 6.36578e-05
*RES
1 *146:X *169:A 12.45 
*END

*D_NET *33 0.00137044
*CONN
*I *170:A I *D sky130_fd_sc_hd__buf_2
*I *149:Y O *D sky130_fd_sc_hd__nor2_1
*CAP
1 *170:A 0.000420976
2 *149:Y 0.000420976
3 *170:A *171:A 0.000157968
4 *170:A *173:A 0.000321522
5 out[4] *170:A 1.17114e-05
6 *158:A *170:A 3.72916e-05
*RES
1 *149:Y *170:A 14.43 
*END

*D_NET *34 0.00417
*CONN
*I *171:A I *D sky130_fd_sc_hd__buf_2
*I *150:Y O *D sky130_fd_sc_hd__xnor2_1
*CAP
1 *171:A 0.000958035
2 *150:Y 0.000958035
3 *171:A *148:A 7.40446e-05
4 *171:A *151:C 0.000205096
5 *171:A *174:A 0.000850197
6 *171:A *39:10 0.000272221
7 *171:A *40:40 4.66108e-05
8 *149:B *171:A 0.000479742
9 *170:A *171:A 0.000157968
10 *25:10 *171:A 8.40269e-05
11 *29:41 *171:A 8.40213e-05
*RES
1 *150:Y *171:A 28.365 
*END

*D_NET *35 0.00119207
*CONN
*I *172:A I *D sky130_fd_sc_hd__buf_2
*I *154:X O *D sky130_fd_sc_hd__clkbuf_1
*CAP
1 *172:A 0.000596036
2 *154:X 0.000596036
3 *172:A *155:A 0
4 *172:A *173:A 0
*RES
1 *154:X *172:A 14.115 
*END

*D_NET *36 0.00207378
*CONN
*I *173:A I *D sky130_fd_sc_hd__clkbuf_4
*I *155:X O *D sky130_fd_sc_hd__xor2_1
*CAP
1 *173:A 0.000840356
2 *155:X 0.000840356
3 *173:A *174:A 0
4 out[5] *173:A 4.40358e-05
5 *146:A *173:A 2.75145e-05
6 *170:A *173:A 0.000321522
7 *172:A *173:A 0
*RES
1 *155:X *173:A 22.32 
*END

*D_NET *37 0.00616508
*CONN
*I *144:A I *D sky130_fd_sc_hd__or4_2
*I *141:A I *D sky130_fd_sc_hd__nor2_1
*I *156:A I *D sky130_fd_sc_hd__and2_1
*I *143:A1 I *D sky130_fd_sc_hd__o31a_1
*I *160:X O *D sky130_fd_sc_hd__buf_1
*CAP
1 *144:A 0
2 *141:A 0
3 *156:A 0.000493821
4 *143:A1 0
5 *160:X 0.000579863
6 *37:35 0.000674874
7 *37:25 0.000387465
8 *37:12 0.000786275
9 *156:A *155:A 0.000349458
10 *37:12 *143:B1 4.43871e-06
11 *37:12 *38:10 0.000112123
12 *37:25 *142:A 2.49909e-05
13 *37:25 *143:A3 2.75145e-05
14 *37:25 *144:C 0.000218576
15 *37:25 *38:10 5.23362e-05
16 *37:35 *144:D 4.82863e-05
17 *142:B *37:25 6.66925e-05
18 *145:A_N *37:12 0.000271334
19 *145:B *37:12 6.73665e-05
20 *146:A *37:12 0
21 *154:A *156:A 0.000729192
22 *154:A *37:35 0.000120186
23 *156:B *156:A 0.000371104
24 *157:B *37:25 0.000205435
25 *19:10 *37:25 0.000203067
26 *21:6 *37:35 1.85674e-05
27 *21:10 *37:35 4.29198e-05
28 *29:41 *37:25 0.000309194
*RES
1 *160:X *37:12 15.245 
2 *37:12 *143:A1 1.6 
3 *37:12 *37:25 11.275 
4 *37:25 *37:35 5.585 
5 *37:35 *156:A 17.115 
6 *37:35 *141:A 3.6 
7 *37:25 *144:A 1.6 
*END

*D_NET *38 0.00318692
*CONN
*I *142:A I *D sky130_fd_sc_hd__xnor2_1
*I *143:A3 I *D sky130_fd_sc_hd__o31a_1
*I *144:C I *D sky130_fd_sc_hd__or4_2
*I *161:X O *D sky130_fd_sc_hd__buf_1
*CAP
1 *142:A 0.000145532
2 *143:A3 6.88143e-05
3 *144:C 0.000205332
4 *161:X 0.000680512
5 *38:25 0.000214346
6 *38:10 0.000885844
7 *143:A3 *143:B1 5.83121e-06
8 *144:C *143:B1 8.11239e-05
9 *144:C *144:D 0.000102346
10 *38:10 *143:B1 1.44177e-05
11 *143:A2 *142:A 0
12 *154:A *144:C 0.000116158
13 *157:B *144:C 0.000182356
14 *29:16 *143:A3 1.47347e-05
15 *29:41 *142:A 1.19928e-05
16 *29:41 *143:A3 1.12578e-05
17 *29:41 *38:10 1.07797e-05
18 *37:12 *38:10 0.000112123
19 *37:25 *142:A 2.49909e-05
20 *37:25 *143:A3 2.75145e-05
21 *37:25 *144:C 0.000218576
22 *37:25 *38:10 5.23362e-05
*RES
1 *161:X *38:10 11.805 
2 *38:10 *144:C 9.87 
3 *38:10 *38:25 2 
4 *38:25 *143:A3 2.74 
5 *38:25 *142:A 3.7 
*END

*D_NET *39 0.00228053
*CONN
*I *143:B1 I *D sky130_fd_sc_hd__o31a_1
*I *144:D I *D sky130_fd_sc_hd__or4_2
*I *162:X O *D sky130_fd_sc_hd__clkbuf_1
*CAP
1 *143:B1 0.000161039
2 *144:D 0.000213698
3 *162:X 0.000234377
4 *39:10 0.000609115
5 *39:10 *151:B 3.92242e-05
6 *39:10 *151:C 0.000159066
7 *39:10 *41:23 0.000161897
8 *143:A3 *143:B1 5.83121e-06
9 *144:C *143:B1 8.11239e-05
10 *144:C *144:D 0.000102346
11 *154:A *144:D 0.000137578
12 *171:A *39:10 0.000272221
13 *21:10 *144:D 2.49909e-05
14 *29:16 *143:B1 1.08758e-05
15 *37:12 *143:B1 4.43871e-06
16 *37:35 *144:D 4.82863e-05
17 *38:10 *143:B1 1.44177e-05
*RES
1 *162:X *39:10 9.24 
2 *39:10 *144:D 7.98 
3 *39:10 *143:B1 6.705 
*END

*D_NET *40 0.00571333
*CONN
*I *148:A I *D sky130_fd_sc_hd__and2_1
*I *151:A I *D sky130_fd_sc_hd__or4_1
*I *147:A I *D sky130_fd_sc_hd__nor2_1
*I *152:A1 I *D sky130_fd_sc_hd__o31ai_1
*I *163:X O *D sky130_fd_sc_hd__buf_1
*CAP
1 *148:A 0.000251501
2 *151:A 0
3 *147:A 0
4 *152:A1 0.000322544
5 *163:X 7.76995e-05
6 *40:40 0.000875624
7 *40:23 0.000871489
8 *40:8 0.000647608
9 *148:A *151:C 4.82919e-05
10 *148:A *174:A 0.000358243
11 *152:A1 *152:A2 0.000169591
12 *152:A1 *41:23 0.000199836
13 *40:23 *41:23 0.000243817
14 *40:40 *151:C 4.66108e-05
15 *146:A *148:A 0
16 *148:B *148:A 8.40269e-05
17 *149:A *40:40 2.39856e-05
18 *149:B *148:A 0.000157864
19 *149:B *40:40 0.00013521
20 *151:D *148:A 5.57182e-05
21 *153:A *40:40 0.00043879
22 *153:B *40:40 0.000121643
23 *163:A *40:8 3.64998e-06
24 *163:A *40:23 0
25 *164:A *152:A1 0
26 *167:A *40:40 0.000375944
27 *171:A *148:A 7.40446e-05
28 *171:A *40:40 4.66108e-05
29 *21:34 *40:40 7.09999e-05
30 *21:49 *148:A 0
31 *23:6 *40:40 1.19928e-05
*RES
1 *163:X *40:8 4.395 
2 *40:8 *152:A1 11.1 
3 *40:8 *40:23 7.4 
4 *40:23 *147:A 1.6 
5 *40:23 *40:40 16.9 
6 *40:40 *151:A 1.6 
7 *40:40 *148:A 12.425 
*END

*D_NET *41 0.00494251
*CONN
*I *151:B I *D sky130_fd_sc_hd__or4_1
*I *150:A I *D sky130_fd_sc_hd__xnor2_1
*I *152:A2 I *D sky130_fd_sc_hd__o31ai_1
*I *164:X O *D sky130_fd_sc_hd__buf_1
*CAP
1 *151:B 0.000756797
2 *150:A 0
3 *152:A2 9.61716e-05
4 *164:X 0
5 *41:23 0.00115583
6 *41:6 0.000495203
7 *151:B *151:C 0.000406402
8 *147:B *41:23 0.000156842
9 *150:B *41:23 0
10 *151:D *151:B 0.000123225
11 *152:A1 *152:A2 0.000169591
12 *152:A1 *41:23 0.000199836
13 *152:A3 *152:A2 0.000298449
14 *152:A3 *41:23 0.000639228
15 *162:A *41:23 0
16 *39:10 *151:B 3.92242e-05
17 *39:10 *41:23 0.000161897
18 *40:23 *41:23 0.000243817
*RES
1 *164:X *41:6 3.6 
2 *41:6 *152:A2 7.2975 
3 *41:6 *41:23 14.3 
4 *41:23 *150:A 1.6 
5 *41:23 *151:B 11.545 
*END

*D_NET *42 0.00404879
*CONN
*I *151:C I *D sky130_fd_sc_hd__or4_1
*I *152:B1 I *D sky130_fd_sc_hd__o31ai_1
*I *165:X O *D sky130_fd_sc_hd__buf_1
*CAP
1 *151:C 0.001236
2 *152:B1 0
3 *165:X 0.000211458
4 *42:14 0.00144746
5 *148:A *151:C 4.82919e-05
6 *150:B *151:C 7.41097e-05
7 *151:B *151:C 0.000406402
8 *151:D *151:C 0.000160641
9 *152:A3 *151:C 0
10 *152:A3 *42:14 9.50342e-06
11 *153:B *151:C 0
12 *171:A *151:C 0.000205096
13 *29:41 *151:C 4.41506e-05
14 *39:10 *151:C 0.000159066
15 *40:40 *151:C 4.66108e-05
*RES
1 *165:X *42:14 8.48 
2 *42:14 *152:B1 1.6 
3 *42:14 *151:C 29.855 
*END

*D_NET *43 0.0032958
*CONN
*I *155:A I *D sky130_fd_sc_hd__xor2_1
*I *166:X O *D sky130_fd_sc_hd__buf_1
*CAP
1 *155:A 0.00102604
2 *166:X 0.00102604
3 *155:A *174:A 0
4 *146:A *155:A 1.71013e-05
5 *149:A *155:A 0.000523836
6 *156:A *155:A 0.000349458
7 *156:B *155:A 4.35348e-05
8 *157:B *155:A 0.000309799
9 *172:A *155:A 0
10 *29:47 *155:A 0
*RES
1 *166:X *155:A 27.42 
*END

*D_NET *44 0.00332897
*CONN
*I *174:A I *D sky130_fd_sc_hd__buf_2
*I *158:X O *D sky130_fd_sc_hd__clkbuf_1
*CAP
1 *174:A 0.000761739
2 *158:X 0.000761739
3 *146:A *174:A 0
4 *148:A *174:A 0.000358243
5 *149:B *174:A 1.14559e-05
6 *155:A *174:A 0
7 *167:A *174:A 0.000287845
8 *169:A *174:A 0.000297747
9 *171:A *174:A 0.000850197
10 *173:A *174:A 0
*RES
1 *158:X *174:A 26.715 
*END
