*SPEF "ieee 1481-1999"
*DESIGN "inverter"
*DATE "16:11:18 Friday April 25, 2025"
*VENDOR "The OpenROAD Project"
*PROGRAM "OpenROAD"
*VERSION "b16bda7e82721d10566ff7e2b68f1ff0be9f9e38"
*DESIGN_FLOW "NAME_SCOPE LOCAL" "PIN_CAP NONE"
*DIVIDER /
*DELIMITER :
*BUS_DELIMITER []
*T_UNIT 1 NS
*C_UNIT 1 PF
*R_UNIT 1 OHM
*L_UNIT 1 HENRY

*NAME_MAP
*3 in[0]
*4 in[1]
*5 in[2]
*6 in[3]
*7 in[4]
*8 in[5]
*9 in[6]
*10 in[7]
*11 out[0]
*12 out[1]
*13 out[2]
*14 out[3]
*15 out[4]
*16 out[5]
*17 out[6]
*18 out[7]
*19 _00_
*20 _01_
*21 _02_
*22 _03_
*23 _04_
*24 _05_
*25 _06_
*26 _07_
*27 _08_
*28 _09_
*29 net1
*30 net10
*31 net11
*32 net12
*33 net13
*34 net14
*35 net15
*36 net16
*37 net2
*38 net3
*39 net4
*40 net5
*41 net6
*42 net7
*43 net8
*44 net9
*45 FILLER_0_0_16
*46 FILLER_0_0_29
*47 FILLER_0_0_37
*48 FILLER_0_0_9
*49 FILLER_0_10_18
*50 FILLER_0_10_26
*51 FILLER_0_10_29
*52 FILLER_0_10_42
*53 FILLER_0_10_6
*54 FILLER_0_11_18
*55 FILLER_0_11_30
*56 FILLER_0_11_42
*57 FILLER_0_11_6
*58 FILLER_0_12_13
*59 FILLER_0_12_27
*60 FILLER_0_12_29
*61 FILLER_0_12_37
*62 FILLER_0_1_24
*63 FILLER_0_1_36
*64 FILLER_0_1_9
*65 FILLER_0_2_15
*66 FILLER_0_2_27
*67 FILLER_0_2_29
*68 FILLER_0_2_3
*69 FILLER_0_2_41
*70 FILLER_0_2_47
*71 FILLER_0_3_18
*72 FILLER_0_3_30
*73 FILLER_0_3_39
*74 FILLER_0_3_43
*75 FILLER_0_3_6
*76 FILLER_0_4_15
*77 FILLER_0_4_27
*78 FILLER_0_4_29
*79 FILLER_0_4_3
*80 FILLER_0_4_41
*81 FILLER_0_4_47
*82 FILLER_0_5_18
*83 FILLER_0_5_23
*84 FILLER_0_5_35
*85 FILLER_0_5_43
*86 FILLER_0_5_6
*87 FILLER_0_6_15
*88 FILLER_0_6_29
*89 FILLER_0_6_3
*90 FILLER_0_6_40
*91 FILLER_0_7_13
*92 FILLER_0_7_21
*93 FILLER_0_7_26
*94 FILLER_0_7_3
*95 FILLER_0_7_38
*96 FILLER_0_7_46
*97 FILLER_0_7_7
*98 FILLER_0_8_14
*99 FILLER_0_8_26
*100 FILLER_0_8_29
*101 FILLER_0_8_39
*102 FILLER_0_8_43
*103 FILLER_0_8_6
*104 FILLER_0_9_15
*105 FILLER_0_9_3
*106 FILLER_0_9_32
*107 FILLER_0_9_44
*108 PHY_EDGE_ROW_0_Left_13
*109 PHY_EDGE_ROW_0_Right_0
*110 PHY_EDGE_ROW_10_Left_23
*111 PHY_EDGE_ROW_10_Right_10
*112 PHY_EDGE_ROW_11_Left_24
*113 PHY_EDGE_ROW_11_Right_11
*114 PHY_EDGE_ROW_12_Left_25
*115 PHY_EDGE_ROW_12_Right_12
*116 PHY_EDGE_ROW_1_Left_14
*117 PHY_EDGE_ROW_1_Right_1
*118 PHY_EDGE_ROW_2_Left_15
*119 PHY_EDGE_ROW_2_Right_2
*120 PHY_EDGE_ROW_3_Left_16
*121 PHY_EDGE_ROW_3_Right_3
*122 PHY_EDGE_ROW_4_Left_17
*123 PHY_EDGE_ROW_4_Right_4
*124 PHY_EDGE_ROW_5_Left_18
*125 PHY_EDGE_ROW_5_Right_5
*126 PHY_EDGE_ROW_6_Left_19
*127 PHY_EDGE_ROW_6_Right_6
*128 PHY_EDGE_ROW_7_Left_20
*129 PHY_EDGE_ROW_7_Right_7
*130 PHY_EDGE_ROW_8_Left_21
*131 PHY_EDGE_ROW_8_Right_8
*132 PHY_EDGE_ROW_9_Left_22
*133 PHY_EDGE_ROW_9_Right_9
*134 TAP_TAPCELL_ROW_0_26
*135 TAP_TAPCELL_ROW_10_31
*136 TAP_TAPCELL_ROW_12_32
*137 TAP_TAPCELL_ROW_2_27
*138 TAP_TAPCELL_ROW_4_28
*139 TAP_TAPCELL_ROW_6_29
*140 TAP_TAPCELL_ROW_8_30
*141 _10_
*142 _11_
*143 _12_
*144 _13_
*145 _14_
*146 _15_
*147 _16_
*148 _17_
*149 _18_
*150 _19_
*151 _20_
*152 _21_
*153 _22_
*154 _23_
*155 _24_
*156 _25_
*157 _26_
*158 _27_
*159 input1
*160 input2
*161 input3
*162 input4
*163 input5
*164 input6
*165 input7
*166 input8
*167 output10
*168 output11
*169 output12
*170 output13
*171 output14
*172 output15
*173 output16
*174 output9

*PORTS
in[0] I
in[1] I
in[2] I
in[3] I
in[4] I
in[5] I
in[6] I
in[7] I
out[0] O
out[1] O
out[2] O
out[3] O
out[4] O
out[5] O
out[6] O
out[7] O

*D_NET *3 0.00111812
*CONN
*P in[0] I
*I *159:A I *D sky130_fd_sc_hd__dlymetal6s2s_1
*CAP
1 in[0] 0.00055906
2 *159:A 0
3 *3:11 0.00055906
4 *3:11 *4:17 0
*RES
1 in[0] *3:11 31.1218 
2 *3:11 *159:A 23 
*END

*D_NET *4 0.000815582
*CONN
*P in[1] I
*I *160:A I *D sky130_fd_sc_hd__buf_1
*CAP
1 in[1] 0.000407791
2 *160:A 0
3 *4:17 0.000407791
4 *4:17 *161:A 0
5 *3:11 *4:17 0
*RES
1 in[1] *4:17 28.9191 
2 *4:17 *160:A 23 
*END

*D_NET *5 0.000615123
*CONN
*P in[2] I
*I *161:A I *D sky130_fd_sc_hd__buf_1
*CAP
1 in[2] 0.000307562
2 *161:A 0.000307562
3 *161:A *6:17 0
4 *4:17 *161:A 0
*RES
1 in[2] *161:A 49.8062 
*END

*D_NET *6 0.000742726
*CONN
*P in[3] I
*I *162:A I *D sky130_fd_sc_hd__clkbuf_1
*CAP
1 in[3] 0.000371363
2 *162:A 0
3 *6:17 0.000371363
4 *6:17 *7:17 0
5 *6:17 *41:23 0
6 *161:A *6:17 0
*RES
1 in[3] *6:17 28.2148 
2 *6:17 *162:A 23 
*END

*D_NET *7 0.000668781
*CONN
*P in[4] I
*I *163:A I *D sky130_fd_sc_hd__buf_1
*CAP
1 in[4] 0.000332535
2 *163:A 0
3 *7:17 0.000332535
4 *7:17 *8:17 0
5 *7:17 *40:8 3.7122e-06
6 *7:17 *40:23 0
7 *6:17 *7:17 0
*RES
1 in[4] *7:17 27.1584 
2 *7:17 *163:A 23 
*END

*D_NET *8 0.000779605
*CONN
*P in[5] I
*I *164:A I *D sky130_fd_sc_hd__buf_1
*CAP
1 in[5] 0.000389802
2 *164:A 0
3 *8:17 0.000389802
4 *8:17 *152:A1 0
5 *8:17 *165:A 0
6 *7:17 *8:17 0
*RES
1 in[5] *8:17 28.567 
2 *8:17 *164:A 23 
*END

*D_NET *9 0.000603153
*CONN
*P in[6] I
*I *165:A I *D sky130_fd_sc_hd__buf_1
*CAP
1 in[6] 0.000301577
2 *165:A 0.000301577
3 *165:A *10:11 0
4 *8:17 *165:A 0
*RES
1 in[6] *165:A 49.8062 
*END

*D_NET *10 0.00130197
*CONN
*P in[7] I
*I *166:A I *D sky130_fd_sc_hd__buf_1
*CAP
1 in[7] 0.000650983
2 *166:A 0
3 *10:11 0.000650983
4 *165:A *10:11 0
*RES
1 in[7] *10:11 32.0837 
2 *10:11 *166:A 23 
*END

*D_NET *11 0.00123536
*CONN
*P out[0] O
*I *174:X O *D sky130_fd_sc_hd__buf_2
*CAP
1 out[0] 0.00029892
2 *174:X 0.000318757
3 *11:8 0.000617678
4 out[0] out[1] 0
*RES
1 *174:X *11:8 44.6596 
2 *11:8 out[0] 9.10133 
*END

*D_NET *12 0.00046494
*CONN
*P out[1] O
*I *167:X O *D sky130_fd_sc_hd__buf_2
*CAP
1 out[1] 0.00023247
2 *167:X 0.00023247
3 out[1] out[2] 0
4 out[0] out[1] 0
*RES
1 *167:X out[1] 47.0789 
*END

*D_NET *13 0.000467688
*CONN
*P out[2] O
*I *168:X O *D sky130_fd_sc_hd__buf_2
*CAP
1 out[2] 0.000227473
2 *168:X 0.000227473
3 out[2] out[3] 0
4 out[2] *31:10 1.27424e-05
5 out[1] out[2] 0
*RES
1 *168:X out[2] 47.0789 
*END

*D_NET *14 0.000635306
*CONN
*P out[3] O
*I *169:X O *D sky130_fd_sc_hd__buf_2
*CAP
1 out[3] 0.000317653
2 *169:X 0.000317653
3 out[3] out[4] 0
4 out[3] *30:14 0
5 out[3] *32:8 0
6 out[2] out[3] 0
*RES
1 *169:X out[3] 48.4875 
*END

*D_NET *15 0.000467688
*CONN
*P out[4] O
*I *170:X O *D sky130_fd_sc_hd__buf_2
*CAP
1 out[4] 0.000227473
2 *170:X 0.000227473
3 out[4] out[5] 0
4 out[4] *33:10 1.27424e-05
5 out[3] out[4] 0
*RES
1 *170:X out[4] 47.0789 
*END

*D_NET *16 0.000632469
*CONN
*P out[5] O
*I *171:X O *D sky130_fd_sc_hd__buf_2
*CAP
1 out[5] 0.000294605
2 *171:X 0.000294605
3 out[5] out[6] 0
4 out[5] *36:12 4.32584e-05
5 out[4] out[5] 0
*RES
1 *171:X out[5] 48.4875 
*END

*D_NET *17 0.00081608
*CONN
*P out[6] O
*I *172:X O *D sky130_fd_sc_hd__buf_2
*CAP
1 out[6] 0.00040804
2 *172:X 0.00040804
3 out[6] out[7] 0
4 out[5] out[6] 0
*RES
1 *172:X out[6] 47.5941 
*END

*D_NET *18 0.00110166
*CONN
*P out[7] O
*I *173:X O *D sky130_fd_sc_hd__clkbuf_4
*CAP
1 out[7] 0.000175108
2 *173:X 0.000375724
3 *18:8 0.000550832
4 out[6] out[7] 0
*RES
1 *173:X *18:8 45.7161 
2 *18:8 out[7] 8.672 
*END

*D_NET *19 0.00238875
*CONN
*I *142:B I *D sky130_fd_sc_hd__xnor2_1
*I *157:A I *D sky130_fd_sc_hd__nor2_1
*I *141:Y O *D sky130_fd_sc_hd__nor2_1
*CAP
1 *142:B 0.000264764
2 *157:A 0
3 *141:Y 0.000325814
4 *19:10 0.000590578
5 *142:B *22:16 0
6 *142:B *29:33 0.000243605
7 *142:B *29:41 0.000161321
8 *142:B *37:25 7.15247e-05
9 *19:10 *28:12 6.08032e-05
10 *19:10 *29:41 0.000133385
11 *19:10 *29:47 0.000294299
12 *19:10 *37:25 0.000242657
*RES
1 *141:Y *19:10 45.1257 
2 *19:10 *157:A 38 
3 *19:10 *142:B 44.1936 
*END

*D_NET *20 0.00165989
*CONN
*I *145:A_N I *D sky130_fd_sc_hd__and2b_1
*I *143:X O *D sky130_fd_sc_hd__o31a_1
*CAP
1 *145:A_N 0
2 *143:X 0.000320683
3 *20:10 0.000320683
4 *20:10 *21:57 0
5 *20:10 *29:16 0.000555336
6 *20:10 *29:33 0.000138444
7 *20:10 *37:12 0.000324742
*RES
1 *143:X *20:10 46.7621 
2 *20:10 *145:A_N 38 
*END

*D_NET *21 0.00927572
*CONN
*I *148:B I *D sky130_fd_sc_hd__and2_1
*I *145:B I *D sky130_fd_sc_hd__and2b_1
*I *151:D I *D sky130_fd_sc_hd__or4_1
*I *147:B I *D sky130_fd_sc_hd__nor2_1
*I *152:A3 I *D sky130_fd_sc_hd__o31ai_1
*I *144:X O *D sky130_fd_sc_hd__or4_2
*CAP
1 *148:B 0.000181143
2 *145:B 0
3 *151:D 0.000153799
4 *147:B 5.48317e-05
5 *152:A3 0
6 *144:X 6.63095e-05
7 *21:57 0.000522378
8 *21:49 0.000879078
9 *21:34 0.000719052
10 *21:14 0.000275449
11 *21:10 0.000981498
12 *21:6 0.00110722
13 *147:B *26:12 0.000194327
14 *147:B *41:23 0.000188256
15 *148:B *24:8 5.12254e-05
16 *148:B *40:57 9.5877e-05
17 *151:D *151:B 0.000140259
18 *151:D *151:C 0.000182832
19 *151:D *40:57 6.38926e-05
20 *21:6 *37:35 2.02517e-05
21 *21:10 *144:B 9.41704e-05
22 *21:10 *144:D 2.64616e-05
23 *21:10 *37:35 4.56338e-05
24 *21:14 *152:A2 0.000357939
25 *21:14 *26:12 0.00106168
26 *21:14 *41:23 0.00076762
27 *21:14 *42:10 1.14452e-05
28 *21:14 *42:25 0
29 *21:34 *144:B 1.24376e-05
30 *21:34 *155:B 0.000164291
31 *21:34 *22:16 8.56075e-05
32 *21:34 *23:23 0.000139657
33 *21:34 *24:12 3.89103e-05
34 *21:34 *25:10 0.000161121
35 *21:34 *40:40 7.461e-05
36 *21:49 *22:16 0.000186594
37 *21:49 *24:12 0.00010349
38 *21:49 *40:57 0
39 *21:57 *22:16 0
40 *21:57 *29:16 0
41 *21:57 *37:12 6.63698e-05
42 *20:10 *21:57 0
*RES
1 *144:X *21:6 24.5536 
2 *21:6 *21:10 24.6736 
3 *21:10 *21:14 29.5829 
4 *21:14 *152:A3 23 
5 *21:10 *147:B 40.61 
6 *21:6 *21:34 23.7829 
7 *21:34 *151:D 41.8529 
8 *21:34 *21:49 20.075 
9 *21:49 *21:57 39.9636 
10 *21:57 *145:B 23 
11 *21:49 *148:B 26.48 
*END

*D_NET *22 0.00314142
*CONN
*I *146:A I *D sky130_fd_sc_hd__clkbuf_1
*I *145:X O *D sky130_fd_sc_hd__and2b_1
*CAP
1 *146:A 0
2 *145:X 0.000161295
3 *22:16 0.00104591
4 *22:8 0.0012072
5 *22:16 *155:B 0.000191157
6 *22:16 *23:23 6.02277e-06
7 *22:16 *25:10 0.000153218
8 *22:16 *29:33 0
9 *22:16 *29:41 5.66802e-05
10 *22:16 *29:47 0
11 *22:16 *36:8 2.93747e-05
12 *22:16 *37:12 0
13 *22:16 *40:57 0
14 *22:16 *43:12 1.83667e-05
15 *22:16 *44:12 0
16 *142:B *22:16 0
17 *21:34 *22:16 8.56075e-05
18 *21:49 *22:16 0.000186594
19 *21:57 *22:16 0
*RES
1 *145:X *22:8 40.0507 
2 *22:8 *22:16 35.6729 
3 *22:16 *146:A 23 
*END

*D_NET *23 0.00488262
*CONN
*I *149:A I *D sky130_fd_sc_hd__nor2_1
*I *150:B I *D sky130_fd_sc_hd__xnor2_1
*I *147:Y O *D sky130_fd_sc_hd__nor2_1
*CAP
1 *149:A 0
2 *150:B 0
3 *147:Y 0.000125752
4 *23:23 0.000729107
5 *23:12 0.000207815
6 *23:6 0.00106267
7 *23:6 *153:A 0.000100061
8 *23:6 *26:12 2.18286e-05
9 *23:6 *40:40 1.21972e-05
10 *23:12 *26:12 1.97329e-05
11 *23:12 *41:23 0
12 *23:12 *42:25 6.67116e-05
13 *23:23 *153:A 0.000907698
14 *23:23 *155:B 1.37246e-05
15 *23:23 *24:12 0.000414771
16 *23:23 *27:8 0.000401824
17 *23:23 *40:40 2.43944e-05
18 *23:23 *43:12 0.000628652
19 *21:34 *23:23 0.000139657
20 *22:16 *23:23 6.02277e-06
*RES
1 *147:Y *23:6 25.0507 
2 *23:6 *23:12 33.6664 
3 *23:12 *150:B 23 
4 *23:6 *23:23 36.8121 
5 *23:23 *149:A 38 
*END

*D_NET *24 0.00279636
*CONN
*I *149:B I *D sky130_fd_sc_hd__nor2_1
*I *148:X O *D sky130_fd_sc_hd__and2_1
*CAP
1 *149:B 0
2 *148:X 8.25057e-05
3 *24:12 0.000581975
4 *24:8 0.000664481
5 *24:12 *34:18 0.000518801
6 *24:12 *40:40 0.000161121
7 *24:12 *40:57 0.000168413
8 *24:12 *44:12 1.06693e-05
9 *148:B *24:8 5.12254e-05
10 *21:34 *24:12 3.89103e-05
11 *21:49 *24:12 0.00010349
12 *23:23 *24:12 0.000414771
*RES
1 *148:X *24:8 39.0979 
2 *24:8 *24:12 33.8086 
3 *24:12 *149:B 23 
*END

*D_NET *25 0.00342913
*CONN
*I *153:A I *D sky130_fd_sc_hd__and2_1
*I *155:B I *D sky130_fd_sc_hd__xor2_1
*I *151:X O *D sky130_fd_sc_hd__or4_1
*CAP
1 *153:A 0.000307985
2 *155:B 7.45663e-05
3 *151:X 0.000150997
4 *25:10 0.000533548
5 *153:A *26:12 0.000100061
6 *153:A *40:40 0.000474825
7 *25:10 *34:10 9.5877e-05
8 *21:34 *155:B 0.000164291
9 *21:34 *25:10 0.000161121
10 *22:16 *155:B 0.000191157
11 *22:16 *25:10 0.000153218
12 *23:6 *153:A 0.000100061
13 *23:23 *153:A 0.000907698
14 *23:23 *155:B 1.37246e-05
*RES
1 *151:X *25:10 41.3557 
2 *25:10 *155:B 40.61 
3 *25:10 *153:A 49.1029 
*END

*D_NET *26 0.00277998
*CONN
*I *153:B I *D sky130_fd_sc_hd__and2_1
*I *152:Y O *D sky130_fd_sc_hd__o31ai_1
*CAP
1 *153:B 0
2 *152:Y 0
3 *26:12 0.000620093
4 *26:6 0.000620093
5 *26:12 *40:40 0.000142173
6 *26:12 *42:25 0
7 *147:B *26:12 0.000194327
8 *153:A *26:12 0.000100061
9 *21:14 *26:12 0.00106168
10 *23:6 *26:12 2.18286e-05
11 *23:12 *26:12 1.97329e-05
*RES
1 *152:Y *26:6 38 
2 *26:6 *26:12 32.9179 
3 *26:12 *153:B 23 
*END

*D_NET *27 0.00399476
*CONN
*I *154:A I *D sky130_fd_sc_hd__clkbuf_1
*I *153:X O *D sky130_fd_sc_hd__and2_1
*CAP
1 *154:A 0
2 *153:X 0.0002899
3 *27:12 0.000360132
4 *27:8 0.000650031
5 *27:12 *144:C 0.000138718
6 *27:12 *144:D 0.000164291
7 *27:12 *28:12 9.44566e-05
8 *27:12 *29:51 0.000459898
9 *27:12 *29:57 0.000415752
10 *27:12 *37:35 0.00014411
11 *27:12 *37:41 0.000875651
12 *23:23 *27:8 0.000401824
*RES
1 *153:X *27:8 42.4329 
2 *27:8 *27:12 30.9914 
3 *27:12 *154:A 23 
*END

*D_NET *28 0.00389586
*CONN
*I *157:B I *D sky130_fd_sc_hd__nor2_1
*I *156:X O *D sky130_fd_sc_hd__and2_1
*CAP
1 *157:B 0
2 *156:X 0.000255009
3 *28:12 0.000675731
4 *28:8 0.000930741
5 *28:8 *43:8 0.000359654
6 *28:12 *144:C 0.000218032
7 *28:12 *29:47 1.69668e-05
8 *28:12 *29:51 0.00046689
9 *28:12 *29:57 0.00057175
10 *28:12 *37:25 0.000245827
11 *28:12 *43:12 0
12 *19:10 *28:12 6.08032e-05
13 *27:12 *28:12 9.44566e-05
*RES
1 *156:X *28:8 41.9564 
2 *28:8 *28:12 34.1607 
3 *28:12 *157:B 23 
*END

*D_NET *29 0.00995473
*CONN
*I *144:B I *D sky130_fd_sc_hd__or4_2
*I *141:B I *D sky130_fd_sc_hd__nor2_1
*I *158:A I *D sky130_fd_sc_hd__clkbuf_1
*I *156:B I *D sky130_fd_sc_hd__and2_1
*I *143:A2 I *D sky130_fd_sc_hd__o31a_1
*I *159:X O *D sky130_fd_sc_hd__dlymetal6s2s_1
*CAP
1 *144:B 9.09106e-05
2 *141:B 0
3 *158:A 0.000409883
4 *156:B 0
5 *143:A2 2.00578e-05
6 *159:X 0.000401059
7 *29:57 0.000406462
8 *29:51 0.000927107
9 *29:47 0.0004419
10 *29:41 0.000677326
11 *29:33 0.000499828
12 *29:16 0.000619928
13 *29:8 0.000756378
14 *143:A2 *142:A 0
15 *158:A *33:10 4.06849e-05
16 *29:16 *143:A3 1.5769e-05
17 *29:16 *143:B1 1.24376e-05
18 *29:33 *142:A 1.21972e-05
19 *29:33 *143:A3 1.22822e-05
20 *29:33 *151:C 4.67488e-05
21 *29:33 *34:10 9.58714e-05
22 *29:33 *37:25 0.000365562
23 *29:33 *38:10 1.12487e-05
24 *29:47 *43:12 0
25 *29:57 *37:41 0.000423561
26 *29:57 *43:8 4.6595e-05
27 *142:B *29:33 0.000243605
28 *142:B *29:41 0.000161321
29 *19:10 *29:41 0.000133385
30 *19:10 *29:47 0.000294299
31 *20:10 *29:16 0.000555336
32 *20:10 *29:33 0.000138444
33 *21:10 *144:B 9.41704e-05
34 *21:34 *144:B 1.24376e-05
35 *21:57 *29:16 0
36 *22:16 *29:33 0
37 *22:16 *29:41 5.66802e-05
38 *22:16 *29:47 0
39 *27:12 *29:51 0.000459898
40 *27:12 *29:57 0.000415752
41 *28:12 *29:47 1.69668e-05
42 *28:12 *29:51 0.00046689
43 *28:12 *29:57 0.00057175
*RES
1 *159:X *29:8 44.815 
2 *29:8 *29:16 23.6586 
3 *29:16 *143:A2 23.4971 
4 *29:16 *29:33 37.1671 
5 *29:33 *29:41 20.1371 
6 *29:41 *29:47 20.7171 
7 *29:47 *29:51 21.1314 
8 *29:51 *29:57 28.0293 
9 *29:57 *156:B 23 
10 *29:51 *158:A 45.3121 
11 *29:47 *141:B 23 
12 *29:41 *144:B 39.0979 
*END

*D_NET *30 0.0034599
*CONN
*I *167:A I *D sky130_fd_sc_hd__buf_2
*I *157:Y O *D sky130_fd_sc_hd__nor2_1
*CAP
1 *167:A 0
2 *157:Y 0.000659296
3 *30:14 0.000657807
4 *30:8 0.0013171
5 *30:8 *40:40 0.000428937
6 *30:14 *31:10 4.58924e-05
7 *30:14 *32:8 6.79006e-05
8 *30:14 *44:12 0.000282963
9 out[3] *30:14 0
*RES
1 *157:Y *30:8 46.2443 
2 *30:8 *30:14 29.7486 
3 *30:14 *167:A 23 
*END

*D_NET *31 0.0013096
*CONN
*I *168:A I *D sky130_fd_sc_hd__buf_2
*I *142:Y O *D sky130_fd_sc_hd__xnor2_1
*CAP
1 *168:A 0
2 *142:Y 0.000625483
3 *31:10 0.000625483
4 out[2] *31:10 1.27424e-05
5 *30:14 *31:10 4.58924e-05
*RES
1 *142:Y *31:10 46.2443 
2 *31:10 *168:A 38 
*END

*D_NET *32 0.00105854
*CONN
*I *169:A I *D sky130_fd_sc_hd__buf_2
*I *146:X O *D sky130_fd_sc_hd__clkbuf_1
*CAP
1 *169:A 0.000158776
2 *146:X 0.000158043
3 *32:8 0.000316819
4 *32:8 *44:12 0.000357
5 out[3] *32:8 0
6 *30:14 *32:8 6.79006e-05
*RES
1 *146:X *32:8 42.7229 
2 *32:8 *169:A 40.5271 
*END

*D_NET *33 0.00165583
*CONN
*I *170:A I *D sky130_fd_sc_hd__buf_2
*I *149:Y O *D sky130_fd_sc_hd__nor2_1
*CAP
1 *170:A 0
2 *149:Y 0.000523846
3 *33:10 0.000523846
4 *33:10 *34:18 0.000168985
5 *33:10 *36:12 0.000385726
6 out[4] *33:10 1.27424e-05
7 *158:A *33:10 4.06849e-05
*RES
1 *149:Y *33:10 47.9843 
2 *33:10 *170:A 38 
*END

*D_NET *34 0.00512085
*CONN
*I *171:A I *D sky130_fd_sc_hd__buf_2
*I *150:Y O *D sky130_fd_sc_hd__xnor2_1
*CAP
1 *171:A 0
2 *150:Y 0.000759548
3 *34:18 0.000515475
4 *34:10 0.00127502
5 *34:10 *151:C 0.000218577
6 *34:10 *39:10 0.00031601
7 *34:10 *40:40 5.3304e-05
8 *34:10 *40:57 8.43466e-05
9 *34:18 *44:12 0.00101903
10 *24:12 *34:18 0.000518801
11 *25:10 *34:10 9.5877e-05
12 *29:33 *34:10 9.58714e-05
13 *33:10 *34:18 0.000168985
*RES
1 *150:Y *34:10 35.2214 
2 *34:10 *34:18 47.0064 
3 *34:18 *171:A 23 
*END

*D_NET *35 0.00140614
*CONN
*I *172:A I *D sky130_fd_sc_hd__buf_2
*I *154:X O *D sky130_fd_sc_hd__clkbuf_1
*CAP
1 *172:A 0
2 *154:X 0.000703069
3 *35:10 0.000703069
4 *35:10 *36:12 0
5 *35:10 *43:12 0
*RES
1 *154:X *35:10 47.5493 
2 *35:10 *172:A 38 
*END

*D_NET *36 0.00250746
*CONN
*I *173:A I *D sky130_fd_sc_hd__clkbuf_4
*I *155:X O *D sky130_fd_sc_hd__xor2_1
*CAP
1 *173:A 0
2 *155:X 0.000214019
3 *36:12 0.000810531
4 *36:8 0.00102455
5 *36:12 *44:12 0
6 out[5] *36:12 4.32584e-05
7 *22:16 *36:8 2.93747e-05
8 *33:10 *36:12 0.000385726
9 *35:10 *36:12 0
*RES
1 *155:X *36:8 41.48 
2 *36:8 *36:12 32.4 
3 *36:12 *173:A 23 
*END

*D_NET *37 0.00755976
*CONN
*I *144:A I *D sky130_fd_sc_hd__or4_2
*I *141:A I *D sky130_fd_sc_hd__nor2_1
*I *156:A I *D sky130_fd_sc_hd__and2_1
*I *143:A1 I *D sky130_fd_sc_hd__o31a_1
*I *160:X O *D sky130_fd_sc_hd__buf_1
*CAP
1 *144:A 0
2 *141:A 0
3 *156:A 0
4 *143:A1 0
5 *160:X 0.000521376
6 *37:41 0.000609016
7 *37:35 0.000839793
8 *37:25 0.000560204
9 *37:12 0.000521331
10 *37:8 0.00071328
11 *37:12 *143:B1 4.6318e-06
12 *37:12 *38:10 0.000133316
13 *37:25 *142:A 2.64616e-05
14 *37:25 *143:A3 2.93747e-05
15 *37:25 *144:C 0.000248324
16 *37:25 *38:10 6.25829e-05
17 *37:35 *144:D 5.50049e-05
18 *37:41 *43:8 0.000409172
19 *142:B *37:25 7.15247e-05
20 *19:10 *37:25 0.000242657
21 *20:10 *37:12 0.000324742
22 *21:6 *37:35 2.02517e-05
23 *21:10 *37:35 4.56338e-05
24 *21:57 *37:12 6.63698e-05
25 *22:16 *37:12 0
26 *27:12 *37:35 0.00014411
27 *27:12 *37:41 0.000875651
28 *28:12 *37:25 0.000245827
29 *29:33 *37:25 0.000365562
30 *29:57 *37:41 0.000423561
*RES
1 *160:X *37:8 46.2443 
2 *37:8 *37:12 20.075 
3 *37:12 *143:A1 23 
4 *37:12 *37:25 40.0464 
5 *37:25 *37:35 19.9507 
6 *37:35 *37:41 33.6636 
7 *37:41 *156:A 23 
8 *37:35 *141:A 38 
9 *37:25 *144:A 23 
*END

*D_NET *38 0.00397531
*CONN
*I *142:A I *D sky130_fd_sc_hd__xnor2_1
*I *143:A3 I *D sky130_fd_sc_hd__o31a_1
*I *144:C I *D sky130_fd_sc_hd__or4_2
*I *161:X O *D sky130_fd_sc_hd__buf_1
*CAP
1 *142:A 0.000189018
2 *143:A3 8.7291e-05
3 *144:C 0.000310353
4 *161:X 0.000841315
5 *38:25 0.000276309
6 *38:10 0.00115167
7 *143:A3 *143:B1 6.17437e-06
8 *144:C *143:B1 8.24045e-05
9 *144:C *144:D 0.000108274
10 *38:10 *143:B1 1.42006e-05
11 *143:A2 *142:A 0
12 *27:12 *144:C 0.000138718
13 *28:12 *144:C 0.000218032
14 *29:16 *143:A3 1.5769e-05
15 *29:33 *142:A 1.21972e-05
16 *29:33 *143:A3 1.22822e-05
17 *29:33 *38:10 1.12487e-05
18 *37:12 *38:10 0.000133316
19 *37:25 *142:A 2.64616e-05
20 *37:25 *143:A3 2.93747e-05
21 *37:25 *144:C 0.000248324
22 *37:25 *38:10 6.25829e-05
*RES
1 *161:X *38:10 49.3307 
2 *38:10 *144:C 46.6586 
3 *38:10 *38:25 15 
4 *38:25 *143:A3 24.5743 
5 *38:25 *142:A 25.9 
*END

*D_NET *39 0.00280598
*CONN
*I *143:B1 I *D sky130_fd_sc_hd__o31a_1
*I *144:D I *D sky130_fd_sc_hd__or4_2
*I *162:X O *D sky130_fd_sc_hd__clkbuf_1
*CAP
1 *143:B1 0.000217081
2 *144:D 0.000298731
3 *162:X 0.000293194
4 *39:10 0.000809006
5 *39:10 *151:B 3.63204e-05
6 *39:10 *151:C 0.000174742
7 *39:10 *41:23 0.000187017
8 *143:A3 *143:B1 6.17437e-06
9 *144:C *143:B1 8.24045e-05
10 *144:C *144:D 0.000108274
11 *21:10 *144:D 2.64616e-05
12 *27:12 *144:D 0.000164291
13 *29:16 *143:B1 1.24376e-05
14 *34:10 *39:10 0.00031601
15 *37:12 *143:B1 4.6318e-06
16 *37:35 *144:D 5.50049e-05
17 *38:10 *143:B1 1.42006e-05
*RES
1 *162:X *39:10 45.7886 
2 *39:10 *144:D 44.0486 
3 *39:10 *143:B1 42.2879 
*END

*D_NET *40 0.00702697
*CONN
*I *148:A I *D sky130_fd_sc_hd__and2_1
*I *151:A I *D sky130_fd_sc_hd__or4_1
*I *147:A I *D sky130_fd_sc_hd__nor2_1
*I *152:A1 I *D sky130_fd_sc_hd__o31ai_1
*I *163:X O *D sky130_fd_sc_hd__buf_1
*CAP
1 *148:A 0
2 *151:A 0
3 *147:A 0
4 *152:A1 0.000407067
5 *163:X 9.68787e-05
6 *40:57 0.00035392
7 *40:40 0.00119954
8 *40:23 0.00116122
9 *40:8 0.000819539
10 *152:A1 *152:A2 0.000183898
11 *152:A1 *41:23 0.000216107
12 *40:23 *41:23 0.000263997
13 *40:40 *151:C 5.3304e-05
14 *40:57 *151:C 5.50106e-05
15 *40:57 *44:12 0.000428682
16 *148:B *40:57 9.5877e-05
17 *151:D *40:57 6.38926e-05
18 *153:A *40:40 0.000474825
19 *7:17 *40:8 3.7122e-06
20 *7:17 *40:23 0
21 *8:17 *152:A1 0
22 *21:34 *40:40 7.461e-05
23 *21:49 *40:57 0
24 *22:16 *40:57 0
25 *23:6 *40:40 1.21972e-05
26 *23:23 *40:40 2.43944e-05
27 *24:12 *40:40 0.000161121
28 *24:12 *40:57 0.000168413
29 *26:12 *40:40 0.000142173
30 *30:8 *40:40 0.000428937
31 *34:10 *40:40 5.3304e-05
32 *34:10 *40:57 8.43466e-05
*RES
1 *163:X *40:8 39.0979 
2 *40:8 *152:A1 48.3571 
3 *40:8 *40:23 22.4571 
4 *40:23 *147:A 23 
5 *40:23 *40:40 47.8143 
6 *40:40 *151:A 23 
7 *40:40 *40:57 39.425 
8 *40:57 *148:A 23 
*END

*D_NET *41 0.00599567
*CONN
*I *151:B I *D sky130_fd_sc_hd__or4_1
*I *150:A I *D sky130_fd_sc_hd__xnor2_1
*I *152:A2 I *D sky130_fd_sc_hd__o31ai_1
*I *164:X O *D sky130_fd_sc_hd__buf_1
*CAP
1 *151:B 0.000932807
2 *150:A 0
3 *152:A2 0.000133422
4 *164:X 0
5 *41:23 0.00147428
6 *41:6 0.000674894
7 *151:B *151:C 0.000438854
8 *147:B *41:23 0.000188256
9 *151:D *151:B 0.000140259
10 *152:A1 *152:A2 0.000183898
11 *152:A1 *41:23 0.000216107
12 *6:17 *41:23 0
13 *21:14 *152:A2 0.000357939
14 *21:14 *41:23 0.00076762
15 *23:12 *41:23 0
16 *39:10 *151:B 3.63204e-05
17 *39:10 *41:23 0.000187017
18 *40:23 *41:23 0.000263997
*RES
1 *164:X *41:6 38 
2 *41:6 *152:A2 43.1061 
3 *41:6 *41:23 31.9857 
4 *41:23 *150:A 23 
5 *41:23 *151:B 36.7336 
*END

*D_NET *42 0.00490733
*CONN
*I *151:C I *D sky130_fd_sc_hd__or4_1
*I *152:B1 I *D sky130_fd_sc_hd__o31ai_1
*I *165:X O *D sky130_fd_sc_hd__buf_1
*CAP
1 *151:C 0.000339633
2 *152:B1 0
3 *165:X 0.000219
4 *42:25 0.00156822
5 *42:14 0.00127092
6 *42:10 0.000261331
7 *151:B *151:C 0.000438854
8 *151:D *151:C 0.000182832
9 *21:14 *42:10 1.14452e-05
10 *21:14 *42:25 0
11 *23:12 *42:25 6.67116e-05
12 *26:12 *42:25 0
13 *29:33 *151:C 4.67488e-05
14 *34:10 *151:C 0.000218577
15 *39:10 *151:C 0.000174742
16 *40:40 *151:C 5.3304e-05
17 *40:57 *151:C 5.50106e-05
*RES
1 *165:X *42:10 41.3557 
2 *42:10 *42:14 15.6214 
3 *42:14 *152:B1 23 
4 *42:14 *42:25 37.3921 
5 *42:25 *151:C 49.1029 
*END

*D_NET *43 0.0039325
*CONN
*I *155:A I *D sky130_fd_sc_hd__xor2_1
*I *166:X O *D sky130_fd_sc_hd__buf_1
*CAP
1 *155:A 0
2 *166:X 0.000496042
3 *43:12 0.000738986
4 *43:8 0.00123503
5 *43:12 *44:12 0
6 *22:16 *43:12 1.83667e-05
7 *23:23 *43:12 0.000628652
8 *28:8 *43:8 0.000359654
9 *28:12 *43:12 0
10 *29:47 *43:12 0
11 *29:57 *43:8 4.6595e-05
12 *35:10 *43:12 0
13 *37:41 *43:8 0.000409172
*RES
1 *166:X *43:8 49.5793 
2 *43:8 *43:12 31.3436 
3 *43:12 *155:A 23 
*END

*D_NET *44 0.00414258
*CONN
*I *174:A I *D sky130_fd_sc_hd__buf_2
*I *158:X O *D sky130_fd_sc_hd__clkbuf_1
*CAP
1 *174:A 0
2 *158:X 0
3 *44:12 0.00102212
4 *44:6 0.00102212
5 *22:16 *44:12 0
6 *24:12 *44:12 1.06693e-05
7 *30:14 *44:12 0.000282963
8 *32:8 *44:12 0.000357
9 *34:18 *44:12 0.00101903
10 *36:12 *44:12 0
11 *40:57 *44:12 0.000428682
12 *43:12 *44:12 0
*RES
1 *158:X *44:6 38 
2 *44:6 *44:12 41.9493 
3 *44:12 *174:A 23 
*END
