* NGSPICE file created from alu.ext - technology: sky130A

* Black-box entry subcircuit for sky130_ef_sc_hd__decap_12 abstract view
.subckt sky130_ef_sc_hd__decap_12 VPWR VGND VPB VNB
.ends

* Black-box entry subcircuit for sky130_fd_sc_hd__tapvpwrvgnd_1 abstract view
.subckt sky130_fd_sc_hd__tapvpwrvgnd_1 VGND VPWR
.ends

* Black-box entry subcircuit for sky130_fd_sc_hd__o211ai_1 abstract view
.subckt sky130_fd_sc_hd__o211ai_1 A1 A2 B1 C1 VGND VNB VPB VPWR Y
.ends

* Black-box entry subcircuit for sky130_fd_sc_hd__decap_8 abstract view
.subckt sky130_fd_sc_hd__decap_8 VGND VNB VPB VPWR
.ends

* Black-box entry subcircuit for sky130_fd_sc_hd__fill_2 abstract view
.subckt sky130_fd_sc_hd__fill_2 VGND VNB VPB VPWR
.ends

* Black-box entry subcircuit for sky130_fd_sc_hd__or3b_1 abstract view
.subckt sky130_fd_sc_hd__or3b_1 A B C_N VGND VNB VPB VPWR X
.ends

* Black-box entry subcircuit for sky130_fd_sc_hd__decap_6 abstract view
.subckt sky130_fd_sc_hd__decap_6 VGND VNB VPB VPWR
.ends

* Black-box entry subcircuit for sky130_fd_sc_hd__nand3_1 abstract view
.subckt sky130_fd_sc_hd__nand3_1 A B C VGND VNB VPB VPWR Y
.ends

* Black-box entry subcircuit for sky130_fd_sc_hd__nor2_1 abstract view
.subckt sky130_fd_sc_hd__nor2_1 A B VGND VNB VPB VPWR Y
.ends

* Black-box entry subcircuit for sky130_fd_sc_hd__fill_1 abstract view
.subckt sky130_fd_sc_hd__fill_1 VGND VNB VPB VPWR
.ends

* Black-box entry subcircuit for sky130_fd_sc_hd__decap_4 abstract view
.subckt sky130_fd_sc_hd__decap_4 VGND VNB VPB VPWR
.ends

* Black-box entry subcircuit for sky130_fd_sc_hd__buf_2 abstract view
.subckt sky130_fd_sc_hd__buf_2 A VGND VNB VPB VPWR X
.ends

* Black-box entry subcircuit for sky130_fd_sc_hd__or2_1 abstract view
.subckt sky130_fd_sc_hd__or2_1 A B VGND VNB VPB VPWR X
.ends

* Black-box entry subcircuit for sky130_fd_sc_hd__nand2_1 abstract view
.subckt sky130_fd_sc_hd__nand2_1 A B VGND VNB VPB VPWR Y
.ends

* Black-box entry subcircuit for sky130_fd_sc_hd__decap_3 abstract view
.subckt sky130_fd_sc_hd__decap_3 VGND VNB VPB VPWR
.ends

* Black-box entry subcircuit for sky130_fd_sc_hd__and3_1 abstract view
.subckt sky130_fd_sc_hd__and3_1 A B C VGND VNB VPB VPWR X
.ends

* Black-box entry subcircuit for sky130_fd_sc_hd__xnor2_1 abstract view
.subckt sky130_fd_sc_hd__xnor2_1 A B VGND VNB VPB VPWR Y
.ends

* Black-box entry subcircuit for sky130_fd_sc_hd__a31o_1 abstract view
.subckt sky130_fd_sc_hd__a31o_1 A1 A2 A3 B1 VGND VNB VPB VPWR X
.ends

* Black-box entry subcircuit for sky130_fd_sc_hd__o31a_1 abstract view
.subckt sky130_fd_sc_hd__o31a_1 A1 A2 A3 B1 VGND VNB VPB VPWR X
.ends

* Black-box entry subcircuit for sky130_fd_sc_hd__a21bo_1 abstract view
.subckt sky130_fd_sc_hd__a21bo_1 A1 A2 B1_N VGND VNB VPB VPWR X
.ends

* Black-box entry subcircuit for sky130_fd_sc_hd__a211o_1 abstract view
.subckt sky130_fd_sc_hd__a211o_1 A1 A2 B1 C1 VGND VNB VPB VPWR X
.ends

* Black-box entry subcircuit for sky130_fd_sc_hd__or3_1 abstract view
.subckt sky130_fd_sc_hd__or3_1 A B C VGND VNB VPB VPWR X
.ends

* Black-box entry subcircuit for sky130_fd_sc_hd__o221a_1 abstract view
.subckt sky130_fd_sc_hd__o221a_1 A1 A2 B1 B2 C1 VGND VNB VPB VPWR X
.ends

* Black-box entry subcircuit for sky130_fd_sc_hd__a21o_1 abstract view
.subckt sky130_fd_sc_hd__a21o_1 A1 A2 B1 VGND VNB VPB VPWR X
.ends

* Black-box entry subcircuit for sky130_fd_sc_hd__a221o_1 abstract view
.subckt sky130_fd_sc_hd__a221o_1 A1 A2 B1 B2 C1 VGND VNB VPB VPWR X
.ends

* Black-box entry subcircuit for sky130_fd_sc_hd__clkbuf_1 abstract view
.subckt sky130_fd_sc_hd__clkbuf_1 A VGND VNB VPB VPWR X
.ends

* Black-box entry subcircuit for sky130_fd_sc_hd__and2_1 abstract view
.subckt sky130_fd_sc_hd__and2_1 A B VGND VNB VPB VPWR X
.ends

* Black-box entry subcircuit for sky130_fd_sc_hd__and3_2 abstract view
.subckt sky130_fd_sc_hd__and3_2 A B C VGND VNB VPB VPWR X
.ends

* Black-box entry subcircuit for sky130_fd_sc_hd__a311o_1 abstract view
.subckt sky130_fd_sc_hd__a311o_1 A1 A2 A3 B1 C1 VGND VNB VPB VPWR X
.ends

* Black-box entry subcircuit for sky130_fd_sc_hd__or4b_1 abstract view
.subckt sky130_fd_sc_hd__or4b_1 A B C D_N VGND VNB VPB VPWR X
.ends

* Black-box entry subcircuit for sky130_fd_sc_hd__and4_1 abstract view
.subckt sky130_fd_sc_hd__and4_1 A B C D VGND VNB VPB VPWR X
.ends

* Black-box entry subcircuit for sky130_fd_sc_hd__and3b_1 abstract view
.subckt sky130_fd_sc_hd__and3b_1 A_N B C VGND VNB VPB VPWR X
.ends

* Black-box entry subcircuit for sky130_fd_sc_hd__clkbuf_4 abstract view
.subckt sky130_fd_sc_hd__clkbuf_4 A VGND VNB VPB VPWR X
.ends

* Black-box entry subcircuit for sky130_fd_sc_hd__o22a_1 abstract view
.subckt sky130_fd_sc_hd__o22a_1 A1 A2 B1 B2 VGND VNB VPB VPWR X
.ends

* Black-box entry subcircuit for sky130_fd_sc_hd__a22o_1 abstract view
.subckt sky130_fd_sc_hd__a22o_1 A1 A2 B1 B2 VGND VNB VPB VPWR X
.ends

* Black-box entry subcircuit for sky130_fd_sc_hd__nor2_2 abstract view
.subckt sky130_fd_sc_hd__nor2_2 A B VGND VNB VPB VPWR Y
.ends

* Black-box entry subcircuit for sky130_fd_sc_hd__or2b_1 abstract view
.subckt sky130_fd_sc_hd__or2b_1 A B_N VGND VNB VPB VPWR X
.ends

* Black-box entry subcircuit for sky130_fd_sc_hd__o21ai_1 abstract view
.subckt sky130_fd_sc_hd__o21ai_1 A1 A2 B1 VGND VNB VPB VPWR Y
.ends

* Black-box entry subcircuit for sky130_fd_sc_hd__a21oi_1 abstract view
.subckt sky130_fd_sc_hd__a21oi_1 A1 A2 B1 VGND VNB VPB VPWR Y
.ends

* Black-box entry subcircuit for sky130_fd_sc_hd__and2b_1 abstract view
.subckt sky130_fd_sc_hd__and2b_1 A_N B VGND VNB VPB VPWR X
.ends

* Black-box entry subcircuit for sky130_fd_sc_hd__xor2_1 abstract view
.subckt sky130_fd_sc_hd__xor2_1 A B VGND VNB VPB VPWR X
.ends

* Black-box entry subcircuit for sky130_fd_sc_hd__inv_2 abstract view
.subckt sky130_fd_sc_hd__inv_2 A VGND VNB VPB VPWR Y
.ends

* Black-box entry subcircuit for sky130_fd_sc_hd__o21a_1 abstract view
.subckt sky130_fd_sc_hd__o21a_1 A1 A2 B1 VGND VNB VPB VPWR X
.ends

* Black-box entry subcircuit for sky130_fd_sc_hd__a31oi_1 abstract view
.subckt sky130_fd_sc_hd__a31oi_1 A1 A2 A3 B1 VGND VNB VPB VPWR Y
.ends

* Black-box entry subcircuit for sky130_fd_sc_hd__clkbuf_2 abstract view
.subckt sky130_fd_sc_hd__clkbuf_2 A VGND VNB VPB VPWR X
.ends

* Black-box entry subcircuit for sky130_fd_sc_hd__dlymetal6s2s_1 abstract view
.subckt sky130_fd_sc_hd__dlymetal6s2s_1 A VGND VNB VPB VPWR X
.ends

* Black-box entry subcircuit for sky130_fd_sc_hd__xnor2_2 abstract view
.subckt sky130_fd_sc_hd__xnor2_2 A B VGND VNB VPB VPWR Y
.ends

* Black-box entry subcircuit for sky130_fd_sc_hd__buf_1 abstract view
.subckt sky130_fd_sc_hd__buf_1 A VGND VNB VPB VPWR X
.ends

* Black-box entry subcircuit for sky130_fd_sc_hd__a311oi_2 abstract view
.subckt sky130_fd_sc_hd__a311oi_2 A1 A2 A3 B1 C1 VGND VNB VPB VPWR Y
.ends

* Black-box entry subcircuit for sky130_fd_sc_hd__o21bai_1 abstract view
.subckt sky130_fd_sc_hd__o21bai_1 A1 A2 B1_N VGND VNB VPB VPWR Y
.ends

* Black-box entry subcircuit for sky130_fd_sc_hd__a311o_2 abstract view
.subckt sky130_fd_sc_hd__a311o_2 A1 A2 A3 B1 C1 VGND VNB VPB VPWR X
.ends

* Black-box entry subcircuit for sky130_fd_sc_hd__a22oi_2 abstract view
.subckt sky130_fd_sc_hd__a22oi_2 A1 A2 B1 B2 VGND VNB VPB VPWR Y
.ends

* Black-box entry subcircuit for sky130_fd_sc_hd__nand3b_4 abstract view
.subckt sky130_fd_sc_hd__nand3b_4 A_N B C VGND VNB VPB VPWR Y
.ends

* Black-box entry subcircuit for sky130_fd_sc_hd__o21ai_2 abstract view
.subckt sky130_fd_sc_hd__o21ai_2 A1 A2 B1 VGND VNB VPB VPWR Y
.ends

* Black-box entry subcircuit for sky130_fd_sc_hd__nor3_1 abstract view
.subckt sky130_fd_sc_hd__nor3_1 A B C VGND VNB VPB VPWR Y
.ends

.subckt alu A[0] A[1] A[2] A[3] A[4] A[5] A[6] A[7] B[0] B[1] B[2] B[3] B[4] B[5]
+ B[6] B[7] OPCODE[0] OPCODE[1] OPCODE[2] OUT[0] OUT[1] OUT[2] OUT[3] OUT[4] OUT[5]
+ OUT[6] OUT[7] VGND VPWR
XFILLER_0_7_81 VPWR VGND VPWR VGND sky130_ef_sc_hd__decap_12
XTAP_TAPCELL_ROW_9_115 VGND VPWR sky130_fd_sc_hd__tapvpwrvgnd_1
X_294_ net7 net1 _094_ _140_ VGND VGND VPWR VPWR _054_ sky130_fd_sc_hd__o211ai_1
XFILLER_0_23_225 VGND VGND VPWR VPWR sky130_fd_sc_hd__decap_8
XTAP_TAPCELL_ROW_15_139 VGND VPWR sky130_fd_sc_hd__tapvpwrvgnd_1
XFILLER_0_3_39 VPWR VGND VPWR VGND sky130_ef_sc_hd__decap_12
XFILLER_0_18_29 VGND VGND VPWR VPWR sky130_fd_sc_hd__fill_2
XTAP_TAPCELL_ROW_34_212 VGND VPWR sky130_fd_sc_hd__tapvpwrvgnd_1
X_277_ _148_ _037_ _038_ VGND VGND VPWR VPWR _039_ sky130_fd_sc_hd__or3b_1
XTAP_TAPCELL_ROW_11_120 VGND VPWR sky130_fd_sc_hd__tapvpwrvgnd_1
XFILLER_0_11_217 VGND VGND VPWR VPWR sky130_fd_sc_hd__decap_6
XFILLER_0_20_19 VGND VGND VPWR VPWR sky130_fd_sc_hd__decap_8
X_200_ _119_ _124_ _127_ VGND VGND VPWR VPWR _128_ sky130_fd_sc_hd__nand3_1
X_329_ net10 net3 VGND VGND VPWR VPWR _085_ sky130_fd_sc_hd__nor2_1
XFILLER_0_0_29 VPWR VGND VPWR VGND sky130_ef_sc_hd__decap_12
XFILLER_0_3_225 VGND VGND VPWR VPWR sky130_fd_sc_hd__decap_8
XFILLER_0_10_41 VPWR VGND VPWR VGND sky130_ef_sc_hd__decap_12
XFILLER_0_10_85 VPWR VGND VPWR VGND sky130_ef_sc_hd__decap_12
XFILLER_0_34_139 VGND VGND VPWR VPWR sky130_fd_sc_hd__fill_1
XFILLER_0_19_169 VPWR VGND VPWR VGND sky130_ef_sc_hd__decap_12
XFILLER_0_19_125 VPWR VGND VPWR VGND sky130_ef_sc_hd__decap_12
XFILLER_0_33_161 VGND VGND VPWR VPWR sky130_fd_sc_hd__decap_6
XFILLER_0_31_29 VPWR VGND VPWR VGND sky130_ef_sc_hd__decap_12
XFILLER_0_21_95 VGND VGND VPWR VPWR sky130_fd_sc_hd__fill_1
XFILLER_0_30_197 VPWR VGND VPWR VGND sky130_ef_sc_hd__decap_12
XFILLER_0_30_153 VPWR VGND VPWR VGND sky130_ef_sc_hd__decap_12
XFILLER_0_26_29 VGND VGND VPWR VPWR sky130_fd_sc_hd__decap_4
XFILLER_0_15_161 VGND VGND VPWR VPWR sky130_fd_sc_hd__decap_6
XFILLER_0_32_83 VGND VGND VPWR VPWR sky130_fd_sc_hd__fill_1
XFILLER_0_12_197 VPWR VGND VPWR VGND sky130_ef_sc_hd__decap_12
XFILLER_0_12_153 VPWR VGND VPWR VGND sky130_ef_sc_hd__decap_12
XTAP_TAPCELL_ROW_26_181 VGND VPWR sky130_fd_sc_hd__tapvpwrvgnd_1
Xoutput20 net20 VGND VGND VPWR VPWR OUT[3] sky130_fd_sc_hd__buf_2
XTAP_TAPCELL_ROW_18_148 VGND VPWR sky130_fd_sc_hd__tapvpwrvgnd_1
XFILLER_0_17_223 VGND VGND VPWR VPWR sky130_fd_sc_hd__fill_1
XFILLER_0_7_93 VPWR VGND VPWR VGND sky130_ef_sc_hd__decap_12
X_293_ _095_ _141_ VGND VGND VPWR VPWR _053_ sky130_fd_sc_hd__or2_1
XFILLER_0_2_109 VPWR VGND VPWR VGND sky130_ef_sc_hd__decap_12
XFILLER_0_34_29 VPWR VGND VPWR VGND sky130_ef_sc_hd__decap_12
XTAP_TAPCELL_ROW_34_213 VGND VPWR sky130_fd_sc_hd__tapvpwrvgnd_1
X_276_ net12 net5 VGND VGND VPWR VPWR _038_ sky130_fd_sc_hd__nand2_1
XTAP_TAPCELL_ROW_11_121 VGND VPWR sky130_fd_sc_hd__tapvpwrvgnd_1
XPHY_EDGE_ROW_21_Right_21 VGND VGND VPWR VPWR sky130_fd_sc_hd__decap_3
XPHY_EDGE_ROW_12_Right_12 VGND VGND VPWR VPWR sky130_fd_sc_hd__decap_3
XFILLER_0_4_83 VGND VGND VPWR VPWR sky130_fd_sc_hd__fill_1
XPHY_EDGE_ROW_30_Right_30 VGND VGND VPWR VPWR sky130_fd_sc_hd__decap_3
X_328_ _010_ _018_ _083_ VGND VGND VPWR VPWR _084_ sky130_fd_sc_hd__and3_1
X_259_ net12 _020_ VGND VGND VPWR VPWR _021_ sky130_fd_sc_hd__xnor2_1
XFILLER_0_27_181 VPWR VGND VPWR VGND sky130_ef_sc_hd__decap_12
XFILLER_0_19_137 VPWR VGND VPWR VGND sky130_ef_sc_hd__decap_12
XFILLER_0_10_53 VPWR VGND VPWR VGND sky130_ef_sc_hd__decap_12
XFILLER_0_10_97 VPWR VGND VPWR VGND sky130_ef_sc_hd__decap_12
XPHY_EDGE_ROW_28_Left_64 VGND VGND VPWR VPWR sky130_fd_sc_hd__decap_3
XFILLER_0_24_195 VGND VGND VPWR VPWR sky130_fd_sc_hd__fill_1
XPHY_EDGE_ROW_12_Left_48 VGND VGND VPWR VPWR sky130_fd_sc_hd__decap_3
XFILLER_0_30_165 VPWR VGND VPWR VGND sky130_ef_sc_hd__decap_12
XFILLER_0_30_121 VPWR VGND VPWR VGND sky130_ef_sc_hd__decap_12
XFILLER_0_1_51 VGND VGND VPWR VPWR sky130_fd_sc_hd__decap_4
XFILLER_0_16_85 VGND VGND VPWR VPWR sky130_fd_sc_hd__decap_3
XFILLER_0_16_52 VPWR VGND VPWR VGND sky130_ef_sc_hd__decap_12
XFILLER_0_16_41 VGND VGND VPWR VPWR sky130_fd_sc_hd__decap_4
XFILLER_0_6_29 VPWR VGND VPWR VGND sky130_ef_sc_hd__decap_12
XFILLER_0_12_165 VPWR VGND VPWR VGND sky130_ef_sc_hd__decap_12
XFILLER_0_12_121 VPWR VGND VPWR VGND sky130_ef_sc_hd__decap_12
XPHY_EDGE_ROW_6_Right_6 VGND VGND VPWR VPWR sky130_fd_sc_hd__decap_3
XTAP_TAPCELL_ROW_26_182 VGND VPWR sky130_fd_sc_hd__tapvpwrvgnd_1
XTAP_TAPCELL_ROW_18_149 VGND VPWR sky130_fd_sc_hd__tapvpwrvgnd_1
Xoutput21 net21 VGND VGND VPWR VPWR OUT[4] sky130_fd_sc_hd__buf_2
XFILLER_0_7_181 VPWR VGND VPWR VGND sky130_ef_sc_hd__decap_12
XFILLER_0_23_205 VPWR VGND VPWR VGND sky130_ef_sc_hd__decap_12
XPHY_EDGE_ROW_15_Left_51 VGND VGND VPWR VPWR sky130_fd_sc_hd__decap_3
X_292_ _018_ _046_ _047_ _052_ VGND VGND VPWR VPWR net24 sky130_fd_sc_hd__a31o_1
XFILLER_0_4_195 VGND VGND VPWR VPWR sky130_fd_sc_hd__fill_1
XTAP_TAPCELL_ROW_3_90 VGND VPWR sky130_fd_sc_hd__tapvpwrvgnd_1
XPHY_EDGE_ROW_0_Left_36 VGND VGND VPWR VPWR sky130_fd_sc_hd__decap_3
XFILLER_0_34_19 VGND VGND VPWR VPWR sky130_fd_sc_hd__decap_8
X_275_ net12 net5 VGND VGND VPWR VPWR _037_ sky130_fd_sc_hd__nor2_1
XTAP_TAPCELL_ROW_11_122 VGND VPWR sky130_fd_sc_hd__tapvpwrvgnd_1
XTAP_TAPCELL_ROW_34_214 VGND VPWR sky130_fd_sc_hd__tapvpwrvgnd_1
XFILLER_0_24_85 VGND VGND VPWR VPWR sky130_fd_sc_hd__decap_8
XFILLER_0_24_41 VPWR VGND VPWR VGND sky130_ef_sc_hd__decap_12
X_189_ net1 _096_ _115_ _116_ VGND VGND VPWR VPWR _117_ sky130_fd_sc_hd__a31o_1
XFILLER_0_19_149 VPWR VGND VPWR VGND sky130_ef_sc_hd__decap_12
X_327_ _009_ _082_ VGND VGND VPWR VPWR _083_ sky130_fd_sc_hd__nand2_1
X_258_ net11 net10 _154_ _153_ VGND VGND VPWR VPWR _020_ sky130_fd_sc_hd__o31a_1
XFILLER_0_3_205 VPWR VGND VPWR VGND sky130_ef_sc_hd__decap_12
XFILLER_0_10_65 VPWR VGND VPWR VGND sky130_ef_sc_hd__decap_12
XFILLER_0_27_193 VPWR VGND VPWR VGND sky130_ef_sc_hd__decap_12
XFILLER_0_24_141 VPWR VGND VPWR VGND sky130_ef_sc_hd__decap_12
XFILLER_0_30_177 VPWR VGND VPWR VGND sky130_ef_sc_hd__decap_12
XFILLER_0_30_133 VGND VGND VPWR VPWR sky130_fd_sc_hd__decap_6
XFILLER_0_6_19 VGND VGND VPWR VPWR sky130_fd_sc_hd__decap_8
XFILLER_0_32_85 VPWR VGND VPWR VGND sky130_ef_sc_hd__decap_12
XFILLER_0_32_41 VPWR VGND VPWR VGND sky130_ef_sc_hd__decap_12
XFILLER_0_16_64 VGND VGND VPWR VPWR sky130_fd_sc_hd__fill_2
XFILLER_0_12_177 VPWR VGND VPWR VGND sky130_ef_sc_hd__decap_12
XFILLER_0_12_133 VGND VGND VPWR VPWR sky130_fd_sc_hd__decap_6
XFILLER_0_35_225 VGND VGND VPWR VPWR sky130_fd_sc_hd__decap_4
XFILLER_0_7_193 VPWR VGND VPWR VGND sky130_ef_sc_hd__decap_12
XFILLER_0_9_3 VPWR VGND VPWR VGND sky130_ef_sc_hd__decap_12
Xoutput22 net22 VGND VGND VPWR VPWR OUT[5] sky130_fd_sc_hd__buf_2
XTAP_TAPCELL_ROW_26_183 VGND VPWR sky130_fd_sc_hd__tapvpwrvgnd_1
XFILLER_0_17_225 VGND VGND VPWR VPWR sky130_fd_sc_hd__decap_8
X_291_ _095_ _048_ _051_ VGND VGND VPWR VPWR _052_ sky130_fd_sc_hd__a21bo_1
XFILLER_0_4_141 VPWR VGND VPWR VGND sky130_ef_sc_hd__decap_12
XFILLER_0_7_51 VGND VGND VPWR VPWR sky130_fd_sc_hd__decap_4
XFILLER_0_23_217 VGND VGND VPWR VPWR sky130_fd_sc_hd__decap_6
XFILLER_0_20_209 VPWR VGND VPWR VGND sky130_ef_sc_hd__decap_12
XTAP_TAPCELL_ROW_20_156 VGND VPWR sky130_fd_sc_hd__tapvpwrvgnd_1
XFILLER_0_1_111 VGND VGND VPWR VPWR sky130_fd_sc_hd__fill_1
XTAP_TAPCELL_ROW_3_91 VGND VPWR sky130_fd_sc_hd__tapvpwrvgnd_1
X_274_ _033_ _034_ VGND VGND VPWR VPWR _036_ sky130_fd_sc_hd__nand2_1
XTAP_TAPCELL_ROW_11_123 VGND VPWR sky130_fd_sc_hd__tapvpwrvgnd_1
XTAP_TAPCELL_ROW_34_215 VGND VPWR sky130_fd_sc_hd__tapvpwrvgnd_1
XFILLER_0_24_53 VGND VGND VPWR VPWR sky130_fd_sc_hd__fill_1
XFILLER_0_4_41 VPWR VGND VPWR VGND sky130_ef_sc_hd__decap_12
XFILLER_0_4_85 VPWR VGND VPWR VGND sky130_ef_sc_hd__decap_12
XFILLER_0_35_85 VPWR VGND VPWR VGND sky130_ef_sc_hd__decap_12
XFILLER_0_35_41 VPWR VGND VPWR VGND sky130_ef_sc_hd__decap_12
XFILLER_0_28_139 VGND VGND VPWR VPWR sky130_fd_sc_hd__fill_1
X_188_ _110_ _111_ _114_ VGND VGND VPWR VPWR _116_ sky130_fd_sc_hd__and3_1
X_326_ _159_ _003_ _006_ _007_ VGND VGND VPWR VPWR _082_ sky130_fd_sc_hd__a31o_1
X_257_ _095_ _139_ _151_ _019_ VGND VGND VPWR VPWR net22 sky130_fd_sc_hd__a211o_1
XFILLER_0_3_217 VGND VGND VPWR VPWR sky130_fd_sc_hd__decap_6
XFILLER_0_10_77 VGND VGND VPWR VPWR sky130_fd_sc_hd__decap_6
XFILLER_0_34_109 VPWR VGND VPWR VGND sky130_ef_sc_hd__decap_12
XFILLER_0_27_161 VGND VGND VPWR VPWR sky130_fd_sc_hd__decap_6
X_309_ _002_ _162_ _000_ VGND VGND VPWR VPWR _067_ sky130_fd_sc_hd__or3_1
XFILLER_0_0_209 VPWR VGND VPWR VGND sky130_ef_sc_hd__decap_12
XFILLER_0_24_197 VPWR VGND VPWR VGND sky130_ef_sc_hd__decap_12
XFILLER_0_24_153 VPWR VGND VPWR VGND sky130_ef_sc_hd__decap_12
XFILLER_0_21_87 VGND VGND VPWR VPWR sky130_fd_sc_hd__decap_8
XFILLER_0_21_76 VGND VGND VPWR VPWR sky130_fd_sc_hd__fill_1
XFILLER_0_30_189 VGND VGND VPWR VPWR sky130_fd_sc_hd__decap_6
XFILLER_0_21_167 VGND VGND VPWR VPWR sky130_fd_sc_hd__fill_1
XFILLER_0_32_97 VPWR VGND VPWR VGND sky130_ef_sc_hd__decap_12
XFILLER_0_32_53 VPWR VGND VPWR VGND sky130_ef_sc_hd__decap_12
XFILLER_0_29_223 VGND VGND VPWR VPWR sky130_fd_sc_hd__fill_1
XTAP_TAPCELL_ROW_29_192 VGND VPWR sky130_fd_sc_hd__tapvpwrvgnd_1
XFILLER_0_16_76 VGND VGND VPWR VPWR sky130_fd_sc_hd__decap_8
XFILLER_0_12_189 VGND VGND VPWR VPWR sky130_fd_sc_hd__decap_6
XFILLER_0_8_139 VGND VGND VPWR VPWR sky130_fd_sc_hd__fill_1
Xoutput23 net23 VGND VGND VPWR VPWR OUT[6] sky130_fd_sc_hd__buf_2
XFILLER_0_7_161 VGND VGND VPWR VPWR sky130_fd_sc_hd__decap_6
XFILLER_0_27_75 VPWR VGND VPWR VGND sky130_ef_sc_hd__decap_12
XFILLER_0_27_64 VGND VGND VPWR VPWR sky130_fd_sc_hd__decap_4
XFILLER_0_4_153 VPWR VGND VPWR VGND sky130_ef_sc_hd__decap_12
XFILLER_0_4_197 VPWR VGND VPWR VGND sky130_ef_sc_hd__decap_12
X_290_ net6 _143_ _043_ _148_ _050_ VGND VGND VPWR VPWR _051_ sky130_fd_sc_hd__o221a_1
XTAP_TAPCELL_ROW_14_132 VGND VPWR sky130_fd_sc_hd__tapvpwrvgnd_1
XFILLER_0_13_11 VGND VGND VPWR VPWR sky130_fd_sc_hd__fill_1
XFILLER_0_1_167 VGND VGND VPWR VPWR sky130_fd_sc_hd__fill_1
XFILLER_0_9_223 VGND VGND VPWR VPWR sky130_fd_sc_hd__fill_1
XTAP_TAPCELL_ROW_20_157 VGND VPWR sky130_fd_sc_hd__tapvpwrvgnd_1
X_273_ _033_ _034_ VGND VGND VPWR VPWR _035_ sky130_fd_sc_hd__or2_1
XFILLER_0_24_65 VPWR VGND VPWR VGND sky130_ef_sc_hd__decap_12
XFILLER_0_10_221 VGND VGND VPWR VPWR sky130_fd_sc_hd__decap_8
XFILLER_0_4_53 VPWR VGND VPWR VGND sky130_ef_sc_hd__decap_12
XFILLER_0_4_97 VPWR VGND VPWR VGND sky130_ef_sc_hd__decap_12
X_187_ _110_ _111_ _114_ VGND VGND VPWR VPWR _115_ sky130_fd_sc_hd__a21o_1
X_325_ _018_ _076_ _077_ _095_ _081_ VGND VGND VPWR VPWR net20 sky130_fd_sc_hd__a221o_1
XFILLER_0_19_43 VPWR VGND VPWR VGND sky130_ef_sc_hd__decap_12
X_256_ _016_ _017_ _018_ VGND VGND VPWR VPWR _019_ sky130_fd_sc_hd__and3_1
XFILLER_0_35_97 VPWR VGND VPWR VGND sky130_ef_sc_hd__decap_12
XFILLER_0_35_53 VGND VGND VPWR VPWR sky130_fd_sc_hd__decap_3
XFILLER_0_18_195 VGND VGND VPWR VPWR sky130_fd_sc_hd__fill_1
XFILLER_0_34_7 VPWR VGND VPWR VGND sky130_ef_sc_hd__decap_12
X_308_ _066_ VGND VGND VPWR VPWR net18 sky130_fd_sc_hd__clkbuf_1
XFILLER_0_24_165 VPWR VGND VPWR VGND sky130_ef_sc_hd__decap_12
X_239_ _159_ _001_ VGND VGND VPWR VPWR _002_ sky130_fd_sc_hd__and2_1
XFILLER_0_21_11 VGND VGND VPWR VPWR sky130_fd_sc_hd__fill_1
XFILLER_0_15_110 VGND VGND VPWR VPWR sky130_fd_sc_hd__fill_2
XFILLER_0_32_65 VPWR VGND VPWR VGND sky130_ef_sc_hd__decap_12
XTAP_TAPCELL_ROW_29_193 VGND VPWR sky130_fd_sc_hd__tapvpwrvgnd_1
XFILLER_0_21_113 VPWR VGND VPWR VGND sky130_ef_sc_hd__decap_12
Xoutput24 net24 VGND VGND VPWR VPWR OUT[7] sky130_fd_sc_hd__buf_2
XPHY_EDGE_ROW_28_Right_28 VGND VGND VPWR VPWR sky130_fd_sc_hd__decap_3
XPHY_EDGE_ROW_19_Right_19 VGND VGND VPWR VPWR sky130_fd_sc_hd__decap_3
XFILLER_0_27_87 VPWR VGND VPWR VGND sky130_ef_sc_hd__decap_12
XFILLER_0_17_205 VPWR VGND VPWR VGND sky130_ef_sc_hd__decap_12
XFILLER_0_4_121 VPWR VGND VPWR VGND sky130_ef_sc_hd__decap_12
XFILLER_0_4_165 VPWR VGND VPWR VGND sky130_ef_sc_hd__decap_12
XPHY_EDGE_ROW_19_Left_55 VGND VGND VPWR VPWR sky130_fd_sc_hd__decap_3
XTAP_TAPCELL_ROW_14_133 VGND VPWR sky130_fd_sc_hd__tapvpwrvgnd_1
XFILLER_0_13_34 VGND VGND VPWR VPWR sky130_fd_sc_hd__fill_1
XFILLER_0_1_113 VPWR VGND VPWR VGND sky130_ef_sc_hd__decap_12
XTAP_TAPCELL_ROW_20_158 VGND VPWR sky130_fd_sc_hd__tapvpwrvgnd_1
X_272_ _118_ _135_ _134_ VGND VGND VPWR VPWR _034_ sky130_fd_sc_hd__a21o_1
XFILLER_0_24_22 VGND VGND VPWR VPWR sky130_fd_sc_hd__fill_2
XFILLER_0_4_65 VPWR VGND VPWR VGND sky130_ef_sc_hd__decap_12
X_255_ net16 _094_ _140_ VGND VGND VPWR VPWR _018_ sky130_fd_sc_hd__and3_2
X_186_ net1 net9 _112_ _113_ VGND VGND VPWR VPWR _114_ sky130_fd_sc_hd__a31o_1
X_324_ _096_ _100_ _141_ _079_ _080_ VGND VGND VPWR VPWR _081_ sky130_fd_sc_hd__a311o_1
XFILLER_0_19_88 VGND VGND VPWR VPWR sky130_fd_sc_hd__decap_6
XFILLER_0_19_55 VGND VGND VPWR VPWR sky130_fd_sc_hd__fill_1
XTAP_TAPCELL_ROW_0_72 VGND VPWR sky130_fd_sc_hd__tapvpwrvgnd_1
XFILLER_0_33_111 VGND VGND VPWR VPWR sky130_fd_sc_hd__fill_1
XFILLER_0_18_141 VPWR VGND VPWR VGND sky130_ef_sc_hd__decap_12
X_307_ _058_ _061_ _062_ _065_ VGND VGND VPWR VPWR _066_ sky130_fd_sc_hd__or4b_1
XFILLER_0_24_177 VPWR VGND VPWR VGND sky130_ef_sc_hd__decap_12
X_238_ _098_ _157_ _158_ VGND VGND VPWR VPWR _001_ sky130_fd_sc_hd__or3_1
X_169_ net2 _096_ VGND VGND VPWR VPWR _097_ sky130_fd_sc_hd__nand2_1
XFILLER_0_1_55 VGND VGND VPWR VPWR sky130_fd_sc_hd__fill_1
XFILLER_0_32_77 VGND VGND VPWR VPWR sky130_fd_sc_hd__decap_6
XFILLER_0_29_225 VGND VGND VPWR VPWR sky130_fd_sc_hd__decap_8
XTAP_TAPCELL_ROW_29_194 VGND VPWR sky130_fd_sc_hd__tapvpwrvgnd_1
XFILLER_0_21_169 VPWR VGND VPWR VGND sky130_ef_sc_hd__decap_12
XFILLER_0_21_125 VPWR VGND VPWR VGND sky130_ef_sc_hd__decap_12
XFILLER_0_16_45 VGND VGND VPWR VPWR sky130_fd_sc_hd__fill_1
XPHY_EDGE_ROW_7_Left_43 VGND VGND VPWR VPWR sky130_fd_sc_hd__decap_3
XPHY_EDGE_ROW_33_Left_69 VGND VGND VPWR VPWR sky130_fd_sc_hd__decap_3
XFILLER_0_32_209 VPWR VGND VPWR VGND sky130_ef_sc_hd__decap_12
XFILLER_0_27_99 VPWR VGND VPWR VGND sky130_ef_sc_hd__decap_12
XFILLER_0_17_217 VGND VGND VPWR VPWR sky130_fd_sc_hd__decap_6
XFILLER_0_4_133 VGND VGND VPWR VPWR sky130_fd_sc_hd__decap_6
XFILLER_0_4_177 VPWR VGND VPWR VGND sky130_ef_sc_hd__decap_12
XFILLER_0_7_3 VPWR VGND VPWR VGND sky130_ef_sc_hd__decap_12
XTAP_TAPCELL_ROW_8_110 VGND VPWR sky130_fd_sc_hd__tapvpwrvgnd_1
XFILLER_0_14_209 VPWR VGND VPWR VGND sky130_ef_sc_hd__decap_12
XTAP_TAPCELL_ROW_14_134 VGND VPWR sky130_fd_sc_hd__tapvpwrvgnd_1
XFILLER_0_1_169 VPWR VGND VPWR VGND sky130_ef_sc_hd__decap_12
XFILLER_0_1_125 VPWR VGND VPWR VGND sky130_ef_sc_hd__decap_12
XTAP_TAPCELL_ROW_20_159 VGND VPWR sky130_fd_sc_hd__tapvpwrvgnd_1
XFILLER_0_9_225 VGND VGND VPWR VPWR sky130_fd_sc_hd__decap_8
XPHY_EDGE_ROW_20_Left_56 VGND VGND VPWR VPWR sky130_fd_sc_hd__decap_3
X_271_ _031_ _032_ VGND VGND VPWR VPWR _033_ sky130_fd_sc_hd__nand2_1
XFILLER_0_4_77 VGND VGND VPWR VPWR sky130_fd_sc_hd__decap_6
XFILLER_0_28_109 VPWR VGND VPWR VGND sky130_ef_sc_hd__decap_12
X_185_ net7 net2 net8 _098_ VGND VGND VPWR VPWR _113_ sky130_fd_sc_hd__and4_1
X_323_ _100_ _143_ VGND VGND VPWR VPWR _080_ sky130_fd_sc_hd__nor2_1
X_254_ _015_ _156_ _010_ VGND VGND VPWR VPWR _017_ sky130_fd_sc_hd__nand3_1
XTAP_TAPCELL_ROW_0_73 VGND VPWR sky130_fd_sc_hd__tapvpwrvgnd_1
XFILLER_0_33_167 VGND VGND VPWR VPWR sky130_fd_sc_hd__fill_1
XFILLER_0_18_197 VPWR VGND VPWR VGND sky130_ef_sc_hd__decap_12
XFILLER_0_18_153 VPWR VGND VPWR VGND sky130_ef_sc_hd__decap_12
XFILLER_0_18_131 VGND VGND VPWR VPWR sky130_fd_sc_hd__decap_8
X_306_ _000_ _064_ _018_ VGND VGND VPWR VPWR _065_ sky130_fd_sc_hd__or3b_1
X_237_ _162_ _163_ _164_ VGND VGND VPWR VPWR _000_ sky130_fd_sc_hd__and3b_1
XFILLER_0_24_189 VGND VGND VPWR VPWR sky130_fd_sc_hd__decap_6
X_168_ B[3] VGND VGND VPWR VPWR _096_ sky130_fd_sc_hd__clkbuf_4
XFILLER_0_21_46 VGND VGND VPWR VPWR sky130_fd_sc_hd__fill_2
XFILLER_0_15_167 VGND VGND VPWR VPWR sky130_fd_sc_hd__fill_1
XTAP_TAPCELL_ROW_29_195 VGND VPWR sky130_fd_sc_hd__tapvpwrvgnd_1
XFILLER_0_21_137 VPWR VGND VPWR VGND sky130_ef_sc_hd__decap_12
XFILLER_0_8_109 VPWR VGND VPWR VGND sky130_ef_sc_hd__decap_12
XPHY_EDGE_ROW_1_Right_1 VGND VGND VPWR VPWR sky130_fd_sc_hd__decap_3
XFILLER_0_11_181 VPWR VGND VPWR VGND sky130_ef_sc_hd__decap_12
XTAP_TAPCELL_ROW_23_168 VGND VPWR sky130_fd_sc_hd__tapvpwrvgnd_1
XFILLER_0_4_189 VGND VGND VPWR VPWR sky130_fd_sc_hd__decap_6
XFILLER_0_7_55 VGND VGND VPWR VPWR sky130_fd_sc_hd__fill_1
XTAP_TAPCELL_ROW_8_111 VGND VPWR sky130_fd_sc_hd__tapvpwrvgnd_1
XFILLER_0_22_221 VPWR VGND VPWR VGND sky130_ef_sc_hd__decap_12
XTAP_TAPCELL_ROW_14_135 VGND VPWR sky130_fd_sc_hd__tapvpwrvgnd_1
XFILLER_0_1_137 VPWR VGND VPWR VGND sky130_ef_sc_hd__decap_12
XFILLER_0_0_181 VPWR VGND VPWR VGND sky130_ef_sc_hd__decap_12
X_270_ _096_ _100_ _030_ VGND VGND VPWR VPWR _032_ sky130_fd_sc_hd__a21o_1
X_322_ _096_ _100_ _146_ _078_ VGND VGND VPWR VPWR _079_ sky130_fd_sc_hd__o22a_1
X_184_ net2 net8 _098_ net7 VGND VGND VPWR VPWR _112_ sky130_fd_sc_hd__a22o_1
XFILLER_0_19_57 VPWR VGND VPWR VGND sky130_ef_sc_hd__decap_12
XFILLER_0_19_24 VPWR VGND VPWR VGND sky130_ef_sc_hd__decap_12
X_253_ _156_ _010_ _015_ VGND VGND VPWR VPWR _016_ sky130_fd_sc_hd__a21o_1
XTAP_TAPCELL_ROW_0_74 VGND VPWR sky130_fd_sc_hd__tapvpwrvgnd_1
XFILLER_0_10_15 VPWR VGND VPWR VGND sky130_ef_sc_hd__decap_12
XFILLER_0_33_113 VPWR VGND VPWR VGND sky130_ef_sc_hd__decap_12
XFILLER_0_18_165 VPWR VGND VPWR VGND sky130_ef_sc_hd__decap_12
XFILLER_0_2_221 VPWR VGND VPWR VGND sky130_ef_sc_hd__decap_12
X_167_ _093_ _094_ VGND VGND VPWR VPWR _095_ sky130_fd_sc_hd__nor2_2
X_305_ _063_ _164_ VGND VGND VPWR VPWR _064_ sky130_fd_sc_hd__nor2_1
X_236_ net1 net7 VGND VGND VPWR VPWR _164_ sky130_fd_sc_hd__or2b_1
XFILLER_0_27_9 VGND VGND VPWR VPWR sky130_fd_sc_hd__fill_2
XFILLER_0_15_113 VPWR VGND VPWR VGND sky130_ef_sc_hd__decap_12
XFILLER_0_1_57 VPWR VGND VPWR VGND sky130_ef_sc_hd__decap_12
XFILLER_0_21_149 VPWR VGND VPWR VGND sky130_ef_sc_hd__decap_12
XFILLER_0_32_7 VPWR VGND VPWR VGND sky130_ef_sc_hd__decap_12
XFILLER_0_29_205 VPWR VGND VPWR VGND sky130_ef_sc_hd__decap_12
X_219_ net14 net16 net15 VGND VGND VPWR VPWR _147_ sky130_fd_sc_hd__or3b_1
XFILLER_0_16_25 VGND VGND VPWR VPWR sky130_fd_sc_hd__decap_3
XFILLER_0_11_193 VPWR VGND VPWR VGND sky130_ef_sc_hd__decap_12
XTAP_TAPCELL_ROW_17_144 VGND VPWR sky130_fd_sc_hd__tapvpwrvgnd_1
XPHY_EDGE_ROW_24_Right_24 VGND VGND VPWR VPWR sky130_fd_sc_hd__decap_3
XTAP_TAPCELL_ROW_23_169 VGND VPWR sky130_fd_sc_hd__tapvpwrvgnd_1
XFILLER_0_23_3 VGND VGND VPWR VPWR sky130_fd_sc_hd__fill_1
XPHY_EDGE_ROW_15_Right_15 VGND VGND VPWR VPWR sky130_fd_sc_hd__decap_3
XPHY_EDGE_ROW_33_Right_33 VGND VGND VPWR VPWR sky130_fd_sc_hd__decap_3
XFILLER_0_1_105 VGND VGND VPWR VPWR sky130_fd_sc_hd__decap_6
XFILLER_0_1_149 VPWR VGND VPWR VGND sky130_ef_sc_hd__decap_12
XFILLER_0_9_205 VPWR VGND VPWR VGND sky130_ef_sc_hd__decap_12
XFILLER_0_0_193 VGND VGND VPWR VPWR sky130_fd_sc_hd__decap_3
XFILLER_0_35_57 VPWR VGND VPWR VGND sky130_ef_sc_hd__decap_12
X_183_ _106_ _105_ _104_ VGND VGND VPWR VPWR _111_ sky130_fd_sc_hd__o21ai_1
X_321_ _096_ _100_ _148_ VGND VGND VPWR VPWR _078_ sky130_fd_sc_hd__a21oi_1
XFILLER_0_19_69 VGND VGND VPWR VPWR sky130_fd_sc_hd__decap_6
XFILLER_0_19_36 VGND VGND VPWR VPWR sky130_fd_sc_hd__decap_4
X_252_ _013_ _014_ VGND VGND VPWR VPWR _015_ sky130_fd_sc_hd__nand2_1
XTAP_TAPCELL_ROW_0_75 VGND VPWR sky130_fd_sc_hd__tapvpwrvgnd_1
XFILLER_0_10_27 VGND VGND VPWR VPWR sky130_fd_sc_hd__fill_1
XFILLER_0_27_111 VGND VGND VPWR VPWR sky130_fd_sc_hd__fill_1
XFILLER_0_33_169 VPWR VGND VPWR VGND sky130_ef_sc_hd__decap_12
XFILLER_0_33_125 VPWR VGND VPWR VGND sky130_ef_sc_hd__decap_12
X_235_ net2 _160_ _161_ VGND VGND VPWR VPWR _163_ sky130_fd_sc_hd__or3_1
X_304_ _162_ _163_ VGND VGND VPWR VPWR _063_ sky130_fd_sc_hd__and2b_1
XFILLER_0_18_177 VPWR VGND VPWR VGND sky130_ef_sc_hd__decap_12
X_166_ net14 net15 VGND VGND VPWR VPWR _094_ sky130_fd_sc_hd__or2_1
XFILLER_0_15_169 VPWR VGND VPWR VGND sky130_ef_sc_hd__decap_12
XFILLER_0_15_125 VPWR VGND VPWR VGND sky130_ef_sc_hd__decap_12
XFILLER_0_1_69 VPWR VGND VPWR VGND sky130_ef_sc_hd__decap_12
XFILLER_0_11_81 VPWR VGND VPWR VGND sky130_ef_sc_hd__decap_12
XFILLER_0_30_139 VGND VGND VPWR VPWR sky130_fd_sc_hd__fill_1
XFILLER_0_29_217 VGND VGND VPWR VPWR sky130_fd_sc_hd__decap_6
X_218_ net15 _145_ VGND VGND VPWR VPWR _146_ sky130_fd_sc_hd__nor2_2
XFILLER_0_12_139 VGND VGND VPWR VPWR sky130_fd_sc_hd__fill_1
Xoutput17 net17 VGND VGND VPWR VPWR OUT[0] sky130_fd_sc_hd__buf_2
XFILLER_0_35_209 VPWR VGND VPWR VGND sky130_ef_sc_hd__decap_12
XFILLER_0_22_91 VGND VGND VPWR VPWR sky130_fd_sc_hd__fill_1
XFILLER_0_18_6 VGND VGND VPWR VPWR sky130_fd_sc_hd__decap_6
XFILLER_0_7_111 VGND VGND VPWR VPWR sky130_fd_sc_hd__fill_1
XFILLER_0_11_161 VGND VGND VPWR VPWR sky130_fd_sc_hd__decap_6
XFILLER_0_26_209 VPWR VGND VPWR VGND sky130_ef_sc_hd__decap_12
XTAP_TAPCELL_ROW_17_145 VGND VPWR sky130_fd_sc_hd__tapvpwrvgnd_1
XFILLER_0_7_57 VPWR VGND VPWR VGND sky130_ef_sc_hd__decap_12
XFILLER_0_31_223 VGND VGND VPWR VPWR sky130_fd_sc_hd__fill_1
XFILLER_0_9_217 VGND VGND VPWR VPWR sky130_fd_sc_hd__decap_6
XFILLER_0_13_223 VGND VGND VPWR VPWR sky130_fd_sc_hd__fill_1
XFILLER_0_5_3 VPWR VGND VPWR VGND sky130_ef_sc_hd__decap_12
XFILLER_0_6_209 VPWR VGND VPWR VGND sky130_ef_sc_hd__decap_12
XTAP_TAPCELL_ROW_33_210 VGND VPWR sky130_fd_sc_hd__tapvpwrvgnd_1
XFILLER_0_14_81 VGND VGND VPWR VPWR sky130_fd_sc_hd__decap_3
X_182_ _106_ _104_ _105_ VGND VGND VPWR VPWR _110_ sky130_fd_sc_hd__or3_1
X_320_ _124_ _127_ VGND VGND VPWR VPWR _077_ sky130_fd_sc_hd__xor2_1
X_251_ net4 _012_ VGND VGND VPWR VPWR _014_ sky130_fd_sc_hd__nand2_1
XTAP_TAPCELL_ROW_0_76 VGND VPWR sky130_fd_sc_hd__tapvpwrvgnd_1
XFILLER_0_35_69 VPWR VGND VPWR VGND sky130_ef_sc_hd__decap_12
XFILLER_0_27_167 VGND VGND VPWR VPWR sky130_fd_sc_hd__fill_1
XFILLER_0_33_137 VPWR VGND VPWR VGND sky130_ef_sc_hd__decap_12
XFILLER_0_18_189 VGND VGND VPWR VPWR sky130_fd_sc_hd__decap_6
X_165_ net16 VGND VGND VPWR VPWR _093_ sky130_fd_sc_hd__inv_2
X_303_ net2 _143_ VGND VGND VPWR VPWR _062_ sky130_fd_sc_hd__nor2_1
X_234_ _160_ _161_ net2 VGND VGND VPWR VPWR _162_ sky130_fd_sc_hd__o21a_1
XFILLER_0_24_104 VPWR VGND VPWR VGND sky130_ef_sc_hd__decap_12
XFILLER_0_21_27 VGND VGND VPWR VPWR sky130_fd_sc_hd__fill_1
XFILLER_0_1_15 VPWR VGND VPWR VGND sky130_ef_sc_hd__decap_12
XFILLER_0_23_181 VPWR VGND VPWR VGND sky130_ef_sc_hd__decap_12