*SPEF "ieee 1481-1999"
*DESIGN "alu"
*DATE "15:47:50 Thursday May 01, 2025"
*VENDOR "The OpenROAD Project"
*PROGRAM "OpenROAD"
*VERSION "b16bda7e82721d10566ff7e2b68f1ff0be9f9e38"
*DESIGN_FLOW "NAME_SCOPE LOCAL" "PIN_CAP NONE"
*DIVIDER /
*DELIMITER :
*BUS_DELIMITER []
*T_UNIT 1 NS
*C_UNIT 1 PF
*R_UNIT 1 OHM
*L_UNIT 1 HENRY

*NAME_MAP
*1 A[0]
*2 A[1]
*3 A[2]
*4 A[3]
*5 A[4]
*6 A[5]
*7 A[6]
*8 A[7]
*9 B[0]
*10 B[1]
*11 B[2]
*12 B[3]
*13 B[4]
*14 B[5]
*15 B[6]
*16 B[7]
*17 OPCODE[0]
*18 OPCODE[1]
*19 OPCODE[2]
*20 OUT[0]
*21 OUT[1]
*22 OUT[2]
*23 OUT[3]
*24 OUT[4]
*25 OUT[5]
*26 OUT[6]
*27 OUT[7]
*30 _000_
*31 _001_
*32 _002_
*33 _003_
*34 _004_
*35 _005_
*36 _006_
*37 _007_
*38 _008_
*39 _009_
*40 _010_
*41 _011_
*42 _012_
*43 _013_
*44 _014_
*45 _015_
*46 _016_
*47 _017_
*48 _018_
*49 _019_
*50 _020_
*51 _021_
*52 _022_
*53 _023_
*54 _024_
*55 _025_
*56 _026_
*57 _027_
*58 _028_
*59 _029_
*60 _030_
*61 _031_
*62 _032_
*63 _033_
*64 _034_
*65 _035_
*66 _036_
*67 _037_
*68 _038_
*69 _039_
*70 _040_
*71 _041_
*72 _042_
*73 _043_
*74 _044_
*75 _045_
*76 _046_
*77 _047_
*78 _048_
*79 _049_
*80 _050_
*81 _051_
*82 _052_
*83 _053_
*84 _054_
*85 _055_
*86 _056_
*87 _057_
*88 _058_
*89 _059_
*90 _060_
*91 _061_
*92 _062_
*93 _063_
*94 _064_
*95 _065_
*96 _066_
*97 _067_
*98 _068_
*99 _069_
*100 _070_
*101 _071_
*102 _072_
*103 _073_
*104 _074_
*105 _075_
*106 _076_
*107 _077_
*108 _078_
*109 _079_
*110 _080_
*111 _081_
*112 _082_
*113 _083_
*114 _084_
*115 _085_
*116 _086_
*117 _087_
*118 _088_
*119 _089_
*120 _090_
*121 _091_
*122 _092_
*123 _093_
*124 _094_
*125 _095_
*126 _096_
*127 _097_
*128 _098_
*129 _099_
*130 _100_
*131 _101_
*132 _102_
*133 _103_
*134 _104_
*135 _105_
*136 _106_
*137 _107_
*138 _108_
*139 _109_
*140 _110_
*141 _111_
*142 _112_
*143 _113_
*144 _114_
*145 _115_
*146 _116_
*147 _117_
*148 _118_
*149 _119_
*150 _120_
*151 _121_
*152 _122_
*153 _123_
*154 _124_
*155 _125_
*156 _126_
*157 _127_
*158 _128_
*159 _129_
*160 _130_
*161 _131_
*162 _132_
*163 _133_
*164 _134_
*165 _135_
*166 _136_
*167 _137_
*168 _138_
*169 _139_
*170 _140_
*171 _141_
*172 _142_
*173 _143_
*174 _144_
*175 _145_
*176 _146_
*177 _147_
*178 _148_
*179 _149_
*180 _150_
*181 _151_
*182 _152_
*183 _153_
*184 _154_
*185 _155_
*186 _156_
*187 _157_
*188 _158_
*189 _159_
*190 _160_
*191 _161_
*192 _162_
*193 _163_
*194 _164_
*195 net1
*196 net10
*197 net11
*198 net12
*199 net13
*200 net14
*201 net15
*202 net16
*203 net17
*204 net18
*205 net19
*206 net2
*207 net20
*208 net21
*209 net22
*210 net23
*211 net24
*212 net3
*213 net4
*214 net5
*215 net6
*216 net7
*217 net8
*218 net9
*219 FILLER_0_0_109
*220 FILLER_0_0_113
*221 FILLER_0_0_125
*222 FILLER_0_0_13
*223 FILLER_0_0_137
*224 FILLER_0_0_141
*225 FILLER_0_0_153
*226 FILLER_0_0_165
*227 FILLER_0_0_169
*228 FILLER_0_0_181
*229 FILLER_0_0_193
*230 FILLER_0_0_197
*231 FILLER_0_0_209
*232 FILLER_0_0_221
*233 FILLER_0_0_225
*234 FILLER_0_0_25
*235 FILLER_0_0_29
*236 FILLER_0_0_41
*237 FILLER_0_0_53
*238 FILLER_0_0_57
*239 FILLER_0_0_69
*240 FILLER_0_0_81
*241 FILLER_0_0_85
*242 FILLER_0_0_97
*243 FILLER_0_10_109
*244 FILLER_0_10_121
*245 FILLER_0_10_133
*246 FILLER_0_10_139
*247 FILLER_0_10_141
*248 FILLER_0_10_15
*249 FILLER_0_10_153
*250 FILLER_0_10_165
*251 FILLER_0_10_177
*252 FILLER_0_10_189
*253 FILLER_0_10_195
*254 FILLER_0_10_197
*255 FILLER_0_10_209
*256 FILLER_0_10_221
*257 FILLER_0_10_27
*258 FILLER_0_10_29
*259 FILLER_0_10_3
*260 FILLER_0_10_41
*261 FILLER_0_10_53
*262 FILLER_0_10_65
*263 FILLER_0_10_77
*264 FILLER_0_10_83
*265 FILLER_0_10_85
*266 FILLER_0_10_97
*267 FILLER_0_11_105
*268 FILLER_0_11_111
*269 FILLER_0_11_113
*270 FILLER_0_11_125
*271 FILLER_0_11_137
*272 FILLER_0_11_149
*273 FILLER_0_11_15
*274 FILLER_0_11_161
*275 FILLER_0_11_167
*276 FILLER_0_11_169
*277 FILLER_0_11_181
*278 FILLER_0_11_193
*279 FILLER_0_11_205
*280 FILLER_0_11_217
*281 FILLER_0_11_223
*282 FILLER_0_11_225
*283 FILLER_0_11_27
*284 FILLER_0_11_3
*285 FILLER_0_11_39
*286 FILLER_0_11_51
*287 FILLER_0_11_55
*288 FILLER_0_11_57
*289 FILLER_0_11_69
*290 FILLER_0_11_81
*291 FILLER_0_11_93
*292 FILLER_0_12_109
*293 FILLER_0_12_121
*294 FILLER_0_12_133
*295 FILLER_0_12_139
*296 FILLER_0_12_141
*297 FILLER_0_12_153
*298 FILLER_0_12_165
*299 FILLER_0_12_177
*300 FILLER_0_12_189
*301 FILLER_0_12_195
*302 FILLER_0_12_197
*303 FILLER_0_12_209
*304 FILLER_0_12_21
*305 FILLER_0_12_221
*306 FILLER_0_12_27
*307 FILLER_0_12_29
*308 FILLER_0_12_41
*309 FILLER_0_12_47
*310 FILLER_0_12_52
*311 FILLER_0_12_58
*312 FILLER_0_12_70
*313 FILLER_0_12_82
*314 FILLER_0_12_85
*315 FILLER_0_12_9
*316 FILLER_0_12_97
*317 FILLER_0_13_106
*318 FILLER_0_13_11
*319 FILLER_0_13_113
*320 FILLER_0_13_125
*321 FILLER_0_13_137
*322 FILLER_0_13_149
*323 FILLER_0_13_161
*324 FILLER_0_13_167
*325 FILLER_0_13_169
*326 FILLER_0_13_181
*327 FILLER_0_13_19
*328 FILLER_0_13_193
*329 FILLER_0_13_205
*330 FILLER_0_13_217
*331 FILLER_0_13_223
*332 FILLER_0_13_225
*333 FILLER_0_13_34
*334 FILLER_0_13_7
*335 FILLER_0_13_70
*336 FILLER_0_13_82
*337 FILLER_0_13_94
*338 FILLER_0_14_109
*339 FILLER_0_14_11
*340 FILLER_0_14_121
*341 FILLER_0_14_133
*342 FILLER_0_14_139
*343 FILLER_0_14_141
*344 FILLER_0_14_153
*345 FILLER_0_14_165
*346 FILLER_0_14_177
*347 FILLER_0_14_189
*348 FILLER_0_14_195
*349 FILLER_0_14_197
*350 FILLER_0_14_20
*351 FILLER_0_14_209
*352 FILLER_0_14_221
*353 FILLER_0_14_24
*354 FILLER_0_14_29
*355 FILLER_0_14_3
*356 FILLER_0_14_56
*357 FILLER_0_14_73
*358 FILLER_0_14_81
*359 FILLER_0_14_85
*360 FILLER_0_14_97
*361 FILLER_0_15_110
*362 FILLER_0_15_113
*363 FILLER_0_15_125
*364 FILLER_0_15_137
*365 FILLER_0_15_149
*366 FILLER_0_15_161
*367 FILLER_0_15_167
*368 FILLER_0_15_169
*369 FILLER_0_15_181
*370 FILLER_0_15_193
*371 FILLER_0_15_205
*372 FILLER_0_15_217
*373 FILLER_0_15_223
*374 FILLER_0_15_225
*375 FILLER_0_15_26
*376 FILLER_0_15_38
*377 FILLER_0_15_46
*378 FILLER_0_15_54
*379 FILLER_0_15_57
*380 FILLER_0_15_84
*381 FILLER_0_15_98
*382 FILLER_0_16_100
*383 FILLER_0_16_112
*384 FILLER_0_16_124
*385 FILLER_0_16_136
*386 FILLER_0_16_141
*387 FILLER_0_16_153
*388 FILLER_0_16_165
*389 FILLER_0_16_177
*390 FILLER_0_16_189
*391 FILLER_0_16_195
*392 FILLER_0_16_197
*393 FILLER_0_16_209
*394 FILLER_0_16_221
*395 FILLER_0_16_25
*396 FILLER_0_16_29
*397 FILLER_0_16_41
*398 FILLER_0_16_45
*399 FILLER_0_16_52
*400 FILLER_0_16_6
*401 FILLER_0_16_64
*402 FILLER_0_16_76
*403 FILLER_0_16_85
*404 FILLER_0_17_113
*405 FILLER_0_17_125
*406 FILLER_0_17_137
*407 FILLER_0_17_149
*408 FILLER_0_17_15
*409 FILLER_0_17_161
*410 FILLER_0_17_167
*411 FILLER_0_17_169
*412 FILLER_0_17_181
*413 FILLER_0_17_193
*414 FILLER_0_17_205
*415 FILLER_0_17_217
*416 FILLER_0_17_223
*417 FILLER_0_17_225
*418 FILLER_0_17_27
*419 FILLER_0_17_3
*420 FILLER_0_17_39
*421 FILLER_0_17_57
*422 FILLER_0_17_66
*423 FILLER_0_17_82
*424 FILLER_0_18_107
*425 FILLER_0_18_119
*426 FILLER_0_18_131
*427 FILLER_0_18_139
*428 FILLER_0_18_141
*429 FILLER_0_18_153
*430 FILLER_0_18_165
*431 FILLER_0_18_177
*432 FILLER_0_18_189
*433 FILLER_0_18_195
*434 FILLER_0_18_197
*435 FILLER_0_18_209
*436 FILLER_0_18_221
*437 FILLER_0_18_26
*438 FILLER_0_18_29
*439 FILLER_0_18_57
*440 FILLER_0_18_6
*441 FILLER_0_18_65
*442 FILLER_0_18_76
*443 FILLER_0_18_85
*444 FILLER_0_18_93
*445 FILLER_0_19_100
*446 FILLER_0_19_113
*447 FILLER_0_19_125
*448 FILLER_0_19_137
*449 FILLER_0_19_149
*450 FILLER_0_19_161
*451 FILLER_0_19_167
*452 FILLER_0_19_169
*453 FILLER_0_19_181
*454 FILLER_0_19_193
*455 FILLER_0_19_205
*456 FILLER_0_19_217
*457 FILLER_0_19_223
*458 FILLER_0_19_225
*459 FILLER_0_19_24
*460 FILLER_0_19_3
*461 FILLER_0_19_36
*462 FILLER_0_19_43
*463 FILLER_0_19_55
*464 FILLER_0_19_57
*465 FILLER_0_19_69
*466 FILLER_0_19_88
*467 FILLER_0_1_105
*468 FILLER_0_1_111
*469 FILLER_0_1_113
*470 FILLER_0_1_125
*471 FILLER_0_1_137
*472 FILLER_0_1_149
*473 FILLER_0_1_15
*474 FILLER_0_1_161
*475 FILLER_0_1_167
*476 FILLER_0_1_169
*477 FILLER_0_1_181
*478 FILLER_0_1_193
*479 FILLER_0_1_205
*480 FILLER_0_1_217
*481 FILLER_0_1_223
*482 FILLER_0_1_225
*483 FILLER_0_1_27
*484 FILLER_0_1_3
*485 FILLER_0_1_39
*486 FILLER_0_1_51
*487 FILLER_0_1_55
*488 FILLER_0_1_57
*489 FILLER_0_1_69
*490 FILLER_0_1_81
*491 FILLER_0_1_93
*492 FILLER_0_20_101
*493 FILLER_0_20_113
*494 FILLER_0_20_125
*495 FILLER_0_20_137
*496 FILLER_0_20_141
*497 FILLER_0_20_153
*498 FILLER_0_20_165
*499 FILLER_0_20_177
*500 FILLER_0_20_189
*501 FILLER_0_20_19
*502 FILLER_0_20_195
*503 FILLER_0_20_197
*504 FILLER_0_20_209
*505 FILLER_0_20_221
*506 FILLER_0_20_27
*507 FILLER_0_20_29
*508 FILLER_0_20_36
*509 FILLER_0_20_42
*510 FILLER_0_20_50
*511 FILLER_0_20_61
*512 FILLER_0_20_73
*513 FILLER_0_20_83
*514 FILLER_0_20_89
*515 FILLER_0_20_93
*516 FILLER_0_21_11
*517 FILLER_0_21_113
*518 FILLER_0_21_125
*519 FILLER_0_21_137
*520 FILLER_0_21_149
*521 FILLER_0_21_161
*522 FILLER_0_21_167
*523 FILLER_0_21_169
*524 FILLER_0_21_181
*525 FILLER_0_21_19
*526 FILLER_0_21_193
*527 FILLER_0_21_205
*528 FILLER_0_21_217
*529 FILLER_0_21_223
*530 FILLER_0_21_225
*531 FILLER_0_21_27
*532 FILLER_0_21_3
*533 FILLER_0_21_46
*534 FILLER_0_21_72
*535 FILLER_0_21_76
*536 FILLER_0_21_87
*537 FILLER_0_21_95
*538 FILLER_0_22_111
*539 FILLER_0_22_123
*540 FILLER_0_22_13
*541 FILLER_0_22_135
*542 FILLER_0_22_139
*543 FILLER_0_22_141
*544 FILLER_0_22_153
*545 FILLER_0_22_165
*546 FILLER_0_22_177
*547 FILLER_0_22_189
*548 FILLER_0_22_195
*549 FILLER_0_22_197
*550 FILLER_0_22_209
*551 FILLER_0_22_221
*552 FILLER_0_22_27
*553 FILLER_0_22_29
*554 FILLER_0_22_47
*555 FILLER_0_22_60
*556 FILLER_0_22_7
*557 FILLER_0_22_72
*558 FILLER_0_22_85
*559 FILLER_0_22_91
*560 FILLER_0_23_107
*561 FILLER_0_23_111
*562 FILLER_0_23_113
*563 FILLER_0_23_125
*564 FILLER_0_23_137
*565 FILLER_0_23_149
*566 FILLER_0_23_15
*567 FILLER_0_23_161
*568 FILLER_0_23_167
*569 FILLER_0_23_169
*570 FILLER_0_23_181
*571 FILLER_0_23_193
*572 FILLER_0_23_205
*573 FILLER_0_23_217
*574 FILLER_0_23_22
*575 FILLER_0_23_223
*576 FILLER_0_23_225
*577 FILLER_0_23_3
*578 FILLER_0_23_30
*579 FILLER_0_23_38
*580 FILLER_0_23_50
*581 FILLER_0_23_57
*582 FILLER_0_23_69
*583 FILLER_0_23_75
*584 FILLER_0_24_104
*585 FILLER_0_24_116
*586 FILLER_0_24_128
*587 FILLER_0_24_141
*588 FILLER_0_24_153
*589 FILLER_0_24_165
*590 FILLER_0_24_17
*591 FILLER_0_24_177
*592 FILLER_0_24_189
*593 FILLER_0_24_195
*594 FILLER_0_24_197
*595 FILLER_0_24_209
*596 FILLER_0_24_22
*597 FILLER_0_24_221
*598 FILLER_0_24_29
*599 FILLER_0_24_3
*600 FILLER_0_24_41
*601 FILLER_0_24_53
*602 FILLER_0_24_65
*603 FILLER_0_24_85
*604 FILLER_0_24_93
*605 FILLER_0_25_110
*606 FILLER_0_25_113
*607 FILLER_0_25_125
*608 FILLER_0_25_137
*609 FILLER_0_25_149
*610 FILLER_0_25_161
*611 FILLER_0_25_167
*612 FILLER_0_25_169
*613 FILLER_0_25_17
*614 FILLER_0_25_181
*615 FILLER_0_25_193
*616 FILLER_0_25_205
*617 FILLER_0_25_217
*618 FILLER_0_25_223
*619 FILLER_0_25_225
*620 FILLER_0_25_29
*621 FILLER_0_25_35
*622 FILLER_0_25_43
*623 FILLER_0_25_51
*624 FILLER_0_25_71
*625 FILLER_0_25_84
*626 FILLER_0_25_9
*627 FILLER_0_25_98
*628 FILLER_0_26_107
*629 FILLER_0_26_119
*630 FILLER_0_26_131
*631 FILLER_0_26_139
*632 FILLER_0_26_14
*633 FILLER_0_26_141
*634 FILLER_0_26_153
*635 FILLER_0_26_165
*636 FILLER_0_26_177
*637 FILLER_0_26_189
*638 FILLER_0_26_195
*639 FILLER_0_26_197
*640 FILLER_0_26_209
*641 FILLER_0_26_221
*642 FILLER_0_26_26
*643 FILLER_0_26_29
*644 FILLER_0_26_3
*645 FILLER_0_26_51
*646 FILLER_0_26_63
*647 FILLER_0_26_69
*648 FILLER_0_26_79
*649 FILLER_0_26_83
*650 FILLER_0_26_95
*651 FILLER_0_27_111
*652 FILLER_0_27_113
*653 FILLER_0_27_125
*654 FILLER_0_27_137
*655 FILLER_0_27_149
*656 FILLER_0_27_16
*657 FILLER_0_27_161
*658 FILLER_0_27_167
*659 FILLER_0_27_169
*660 FILLER_0_27_181
*661 FILLER_0_27_193
*662 FILLER_0_27_205
*663 FILLER_0_27_217
*664 FILLER_0_27_223
*665 FILLER_0_27_225
*666 FILLER_0_27_48
*667 FILLER_0_27_64
*668 FILLER_0_27_75
*669 FILLER_0_27_87
*670 FILLER_0_27_9
*671 FILLER_0_27_99
*672 FILLER_0_28_109
*673 FILLER_0_28_121
*674 FILLER_0_28_133
*675 FILLER_0_28_139
*676 FILLER_0_28_141
*677 FILLER_0_28_153
*678 FILLER_0_28_165
*679 FILLER_0_28_177
*680 FILLER_0_28_189
*681 FILLER_0_28_195
*682 FILLER_0_28_197
*683 FILLER_0_28_209
*684 FILLER_0_28_221
*685 FILLER_0_28_26
*686 FILLER_0_28_3
*687 FILLER_0_28_34
*688 FILLER_0_28_46
*689 FILLER_0_28_67
*690 FILLER_0_28_83
*691 FILLER_0_28_85
*692 FILLER_0_28_97
*693 FILLER_0_29_105
*694 FILLER_0_29_111
*695 FILLER_0_29_113
*696 FILLER_0_29_125
*697 FILLER_0_29_137
*698 FILLER_0_29_149
*699 FILLER_0_29_161
*700 FILLER_0_29_167
*701 FILLER_0_29_169
*702 FILLER_0_29_181
*703 FILLER_0_29_193
*704 FILLER_0_29_205
*705 FILLER_0_29_217
*706 FILLER_0_29_223
*707 FILLER_0_29_225
*708 FILLER_0_29_36
*709 FILLER_0_29_44
*710 FILLER_0_29_54
*711 FILLER_0_29_57
*712 FILLER_0_29_69
*713 FILLER_0_29_81
*714 FILLER_0_29_93
*715 FILLER_0_2_109
*716 FILLER_0_2_121
*717 FILLER_0_2_13
*718 FILLER_0_2_133
*719 FILLER_0_2_139
*720 FILLER_0_2_141
*721 FILLER_0_2_153
*722 FILLER_0_2_165
*723 FILLER_0_2_177
*724 FILLER_0_2_189
*725 FILLER_0_2_195
*726 FILLER_0_2_197
*727 FILLER_0_2_209
*728 FILLER_0_2_221
*729 FILLER_0_2_25
*730 FILLER_0_2_29
*731 FILLER_0_2_41
*732 FILLER_0_2_53
*733 FILLER_0_2_65
*734 FILLER_0_2_77
*735 FILLER_0_2_83
*736 FILLER_0_2_85
*737 FILLER_0_2_97
*738 FILLER_0_30_109
*739 FILLER_0_30_121
*740 FILLER_0_30_133
*741 FILLER_0_30_139
*742 FILLER_0_30_141
*743 FILLER_0_30_153
*744 FILLER_0_30_165
*745 FILLER_0_30_177
*746 FILLER_0_30_189
*747 FILLER_0_30_195
*748 FILLER_0_30_197
*749 FILLER_0_30_209
*750 FILLER_0_30_221
*751 FILLER_0_30_227
*752 FILLER_0_30_27
*753 FILLER_0_30_29
*754 FILLER_0_30_41
*755 FILLER_0_30_49
*756 FILLER_0_30_57
*757 FILLER_0_30_69
*758 FILLER_0_30_81
*759 FILLER_0_30_85
*760 FILLER_0_30_97
*761 FILLER_0_31_105
*762 FILLER_0_31_111
*763 FILLER_0_31_113
*764 FILLER_0_31_125
*765 FILLER_0_31_137
*766 FILLER_0_31_149
*767 FILLER_0_31_161
*768 FILLER_0_31_167
*769 FILLER_0_31_169
*770 FILLER_0_31_17
*771 FILLER_0_31_181
*772 FILLER_0_31_193
*773 FILLER_0_31_205
*774 FILLER_0_31_217
*775 FILLER_0_31_223
*776 FILLER_0_31_225
*777 FILLER_0_31_29
*778 FILLER_0_31_3
*779 FILLER_0_31_41
*780 FILLER_0_31_53
*781 FILLER_0_31_57
*782 FILLER_0_31_69
*783 FILLER_0_31_81
*784 FILLER_0_31_93
*785 FILLER_0_32_109
*786 FILLER_0_32_121
*787 FILLER_0_32_133
*788 FILLER_0_32_139
*789 FILLER_0_32_141
*790 FILLER_0_32_153
*791 FILLER_0_32_165
*792 FILLER_0_32_177
*793 FILLER_0_32_189
*794 FILLER_0_32_19
*795 FILLER_0_32_195
*796 FILLER_0_32_197
*797 FILLER_0_32_209
*798 FILLER_0_32_221
*799 FILLER_0_32_27
*800 FILLER_0_32_29
*801 FILLER_0_32_41
*802 FILLER_0_32_53
*803 FILLER_0_32_65
*804 FILLER_0_32_7
*805 FILLER_0_32_77
*806 FILLER_0_32_83
*807 FILLER_0_32_85
*808 FILLER_0_32_97
*809 FILLER_0_33_105
*810 FILLER_0_33_111
*811 FILLER_0_33_113
*812 FILLER_0_33_125
*813 FILLER_0_33_137
*814 FILLER_0_33_149
*815 FILLER_0_33_15
*816 FILLER_0_33_161
*817 FILLER_0_33_167
*818 FILLER_0_33_169
*819 FILLER_0_33_181
*820 FILLER_0_33_193
*821 FILLER_0_33_205
*822 FILLER_0_33_217
*823 FILLER_0_33_223
*824 FILLER_0_33_225
*825 FILLER_0_33_27
*826 FILLER_0_33_3
*827 FILLER_0_33_39
*828 FILLER_0_33_51
*829 FILLER_0_33_55
*830 FILLER_0_33_57
*831 FILLER_0_33_69
*832 FILLER_0_33_81
*833 FILLER_0_33_93
*834 FILLER_0_34_109
*835 FILLER_0_34_121
*836 FILLER_0_34_133
*837 FILLER_0_34_139
*838 FILLER_0_34_141
*839 FILLER_0_34_153
*840 FILLER_0_34_165
*841 FILLER_0_34_177
*842 FILLER_0_34_189
*843 FILLER_0_34_19
*844 FILLER_0_34_195
*845 FILLER_0_34_197
*846 FILLER_0_34_209
*847 FILLER_0_34_221
*848 FILLER_0_34_27
*849 FILLER_0_34_29
*850 FILLER_0_34_41
*851 FILLER_0_34_53
*852 FILLER_0_34_65
*853 FILLER_0_34_7
*854 FILLER_0_34_77
*855 FILLER_0_34_83
*856 FILLER_0_34_85
*857 FILLER_0_34_97
*858 FILLER_0_35_109
*859 FILLER_0_35_113
*860 FILLER_0_35_125
*861 FILLER_0_35_137
*862 FILLER_0_35_141
*863 FILLER_0_35_153
*864 FILLER_0_35_165
*865 FILLER_0_35_169
*866 FILLER_0_35_18
*867 FILLER_0_35_181
*868 FILLER_0_35_193
*869 FILLER_0_35_197
*870 FILLER_0_35_209
*871 FILLER_0_35_221
*872 FILLER_0_35_225
*873 FILLER_0_35_26
*874 FILLER_0_35_29
*875 FILLER_0_35_41
*876 FILLER_0_35_53
*877 FILLER_0_35_57
*878 FILLER_0_35_6
*879 FILLER_0_35_69
*880 FILLER_0_35_81
*881 FILLER_0_35_85
*882 FILLER_0_35_97
*883 FILLER_0_3_105
*884 FILLER_0_3_111
*885 FILLER_0_3_113
*886 FILLER_0_3_125
*887 FILLER_0_3_137
*888 FILLER_0_3_149
*889 FILLER_0_3_15
*890 FILLER_0_3_161
*891 FILLER_0_3_167
*892 FILLER_0_3_169
*893 FILLER_0_3_181
*894 FILLER_0_3_193
*895 FILLER_0_3_205
*896 FILLER_0_3_217
*897 FILLER_0_3_223
*898 FILLER_0_3_225
*899 FILLER_0_3_27
*900 FILLER_0_3_3
*901 FILLER_0_3_39
*902 FILLER_0_3_51
*903 FILLER_0_3_55
*904 FILLER_0_3_57
*905 FILLER_0_3_69
*906 FILLER_0_3_81
*907 FILLER_0_3_93
*908 FILLER_0_4_109
*909 FILLER_0_4_121
*910 FILLER_0_4_133
*911 FILLER_0_4_139
*912 FILLER_0_4_141
*913 FILLER_0_4_153
*914 FILLER_0_4_165
*915 FILLER_0_4_177
*916 FILLER_0_4_189
*917 FILLER_0_4_19
*918 FILLER_0_4_195
*919 FILLER_0_4_197
*920 FILLER_0_4_209
*921 FILLER_0_4_221
*922 FILLER_0_4_27
*923 FILLER_0_4_29
*924 FILLER_0_4_41
*925 FILLER_0_4_53
*926 FILLER_0_4_65
*927 FILLER_0_4_7
*928 FILLER_0_4_77
*929 FILLER_0_4_83
*930 FILLER_0_4_85
*931 FILLER_0_4_97
*932 FILLER_0_5_105
*933 FILLER_0_5_111
*934 FILLER_0_5_113
*935 FILLER_0_5_125
*936 FILLER_0_5_137
*937 FILLER_0_5_149
*938 FILLER_0_5_15
*939 FILLER_0_5_161
*940 FILLER_0_5_167
*941 FILLER_0_5_169
*942 FILLER_0_5_181
*943 FILLER_0_5_193
*944 FILLER_0_5_205
*945 FILLER_0_5_217
*946 FILLER_0_5_223
*947 FILLER_0_5_225
*948 FILLER_0_5_27
*949 FILLER_0_5_3
*950 FILLER_0_5_39
*951 FILLER_0_5_51
*952 FILLER_0_5_55
*953 FILLER_0_5_57
*954 FILLER_0_5_69
*955 FILLER_0_5_81
*956 FILLER_0_5_93
*957 FILLER_0_6_109
*958 FILLER_0_6_121
*959 FILLER_0_6_133
*960 FILLER_0_6_139
*961 FILLER_0_6_141
*962 FILLER_0_6_153
*963 FILLER_0_6_165
*964 FILLER_0_6_177
*965 FILLER_0_6_189
*966 FILLER_0_6_19
*967 FILLER_0_6_195
*968 FILLER_0_6_197
*969 FILLER_0_6_209
*970 FILLER_0_6_221
*971 FILLER_0_6_27
*972 FILLER_0_6_29
*973 FILLER_0_6_41
*974 FILLER_0_6_53
*975 FILLER_0_6_65
*976 FILLER_0_6_7
*977 FILLER_0_6_77
*978 FILLER_0_6_83
*979 FILLER_0_6_85
*980 FILLER_0_6_97
*981 FILLER_0_7_105
*982 FILLER_0_7_111
*983 FILLER_0_7_113
*984 FILLER_0_7_125
*985 FILLER_0_7_137
*986 FILLER_0_7_149
*987 FILLER_0_7_15
*988 FILLER_0_7_161
*989 FILLER_0_7_167
*990 FILLER_0_7_169
*991 FILLER_0_7_181
*992 FILLER_0_7_193
*993 FILLER_0_7_205
*994 FILLER_0_7_217
*995 FILLER_0_7_223
*996 FILLER_0_7_225
*997 FILLER_0_7_27
*998 FILLER_0_7_3
*999 FILLER_0_7_39
*1000 FILLER_0_7_51
*1001 FILLER_0_7_55
*1002 FILLER_0_7_57
*1003 FILLER_0_7_69
*1004 FILLER_0_7_81
*1005 FILLER_0_7_93
*1006 FILLER_0_8_109
*1007 FILLER_0_8_121
*1008 FILLER_0_8_133
*1009 FILLER_0_8_139
*1010 FILLER_0_8_141
*1011 FILLER_0_8_15
*1012 FILLER_0_8_153
*1013 FILLER_0_8_165
*1014 FILLER_0_8_177
*1015 FILLER_0_8_189
*1016 FILLER_0_8_195
*1017 FILLER_0_8_197
*1018 FILLER_0_8_209
*1019 FILLER_0_8_221
*1020 FILLER_0_8_27
*1021 FILLER_0_8_29
*1022 FILLER_0_8_3
*1023 FILLER_0_8_41
*1024 FILLER_0_8_53
*1025 FILLER_0_8_65
*1026 FILLER_0_8_77
*1027 FILLER_0_8_83
*1028 FILLER_0_8_85
*1029 FILLER_0_8_97
*1030 FILLER_0_9_105
*1031 FILLER_0_9_111
*1032 FILLER_0_9_113
*1033 FILLER_0_9_125
*1034 FILLER_0_9_137
*1035 FILLER_0_9_149
*1036 FILLER_0_9_15
*1037 FILLER_0_9_161
*1038 FILLER_0_9_167
*1039 FILLER_0_9_169
*1040 FILLER_0_9_181
*1041 FILLER_0_9_193
*1042 FILLER_0_9_205
*1043 FILLER_0_9_217
*1044 FILLER_0_9_223
*1045 FILLER_0_9_225
*1046 FILLER_0_9_23
*1047 FILLER_0_9_3
*1048 FILLER_0_9_31
*1049 FILLER_0_9_43
*1050 FILLER_0_9_55
*1051 FILLER_0_9_57
*1052 FILLER_0_9_69
*1053 FILLER_0_9_81
*1054 FILLER_0_9_93
*1055 PHY_EDGE_ROW_0_Left_36
*1056 PHY_EDGE_ROW_0_Right_0
*1057 PHY_EDGE_ROW_10_Left_46
*1058 PHY_EDGE_ROW_10_Right_10
*1059 PHY_EDGE_ROW_11_Left_47
*1060 PHY_EDGE_ROW_11_Right_11
*1061 PHY_EDGE_ROW_12_Left_48
*1062 PHY_EDGE_ROW_12_Right_12
*1063 PHY_EDGE_ROW_13_Left_49
*1064 PHY_EDGE_ROW_13_Right_13
*1065 PHY_EDGE_ROW_14_Left_50
*1066 PHY_EDGE_ROW_14_Right_14
*1067 PHY_EDGE_ROW_15_Left_51
*1068 PHY_EDGE_ROW_15_Right_15
*1069 PHY_EDGE_ROW_16_Left_52
*1070 PHY_EDGE_ROW_16_Right_16
*1071 PHY_EDGE_ROW_17_Left_53
*1072 PHY_EDGE_ROW_17_Right_17
*1073 PHY_EDGE_ROW_18_Left_54
*1074 PHY_EDGE_ROW_18_Right_18
*1075 PHY_EDGE_ROW_19_Left_55
*1076 PHY_EDGE_ROW_19_Right_19
*1077 PHY_EDGE_ROW_1_Left_37
*1078 PHY_EDGE_ROW_1_Right_1
*1079 PHY_EDGE_ROW_20_Left_56
*1080 PHY_EDGE_ROW_20_Right_20
*1081 PHY_EDGE_ROW_21_Left_57
*1082 PHY_EDGE_ROW_21_Right_21
*1083 PHY_EDGE_ROW_22_Left_58
*1084 PHY_EDGE_ROW_22_Right_22
*1085 PHY_EDGE_ROW_23_Left_59
*1086 PHY_EDGE_ROW_23_Right_23
*1087 PHY_EDGE_ROW_24_Left_60
*1088 PHY_EDGE_ROW_24_Right_24
*1089 PHY_EDGE_ROW_25_Left_61
*1090 PHY_EDGE_ROW_25_Right_25
*1091 PHY_EDGE_ROW_26_Left_62
*1092 PHY_EDGE_ROW_26_Right_26
*1093 PHY_EDGE_ROW_27_Left_63
*1094 PHY_EDGE_ROW_27_Right_27
*1095 PHY_EDGE_ROW_28_Left_64
*1096 PHY_EDGE_ROW_28_Right_28
*1097 PHY_EDGE_ROW_29_Left_65
*1098 PHY_EDGE_ROW_29_Right_29
*1099 PHY_EDGE_ROW_2_Left_38
*1100 PHY_EDGE_ROW_2_Right_2
*1101 PHY_EDGE_ROW_30_Left_66
*1102 PHY_EDGE_ROW_30_Right_30
*1103 PHY_EDGE_ROW_31_Left_67
*1104 PHY_EDGE_ROW_31_Right_31
*1105 PHY_EDGE_ROW_32_Left_68
*1106 PHY_EDGE_ROW_32_Right_32
*1107 PHY_EDGE_ROW_33_Left_69
*1108 PHY_EDGE_ROW_33_Right_33
*1109 PHY_EDGE_ROW_34_Left_70
*1110 PHY_EDGE_ROW_34_Right_34
*1111 PHY_EDGE_ROW_35_Left_71
*1112 PHY_EDGE_ROW_35_Right_35
*1113 PHY_EDGE_ROW_3_Left_39
*1114 PHY_EDGE_ROW_3_Right_3
*1115 PHY_EDGE_ROW_4_Left_40
*1116 PHY_EDGE_ROW_4_Right_4
*1117 PHY_EDGE_ROW_5_Left_41
*1118 PHY_EDGE_ROW_5_Right_5
*1119 PHY_EDGE_ROW_6_Left_42
*1120 PHY_EDGE_ROW_6_Right_6
*1121 PHY_EDGE_ROW_7_Left_43
*1122 PHY_EDGE_ROW_7_Right_7
*1123 PHY_EDGE_ROW_8_Left_44
*1124 PHY_EDGE_ROW_8_Right_8
*1125 PHY_EDGE_ROW_9_Left_45
*1126 PHY_EDGE_ROW_9_Right_9
*1127 TAP_TAPCELL_ROW_0_72
*1128 TAP_TAPCELL_ROW_0_73
*1129 TAP_TAPCELL_ROW_0_74
*1130 TAP_TAPCELL_ROW_0_75
*1131 TAP_TAPCELL_ROW_0_76
*1132 TAP_TAPCELL_ROW_0_77
*1133 TAP_TAPCELL_ROW_0_78
*1134 TAP_TAPCELL_ROW_0_79
*1135 TAP_TAPCELL_ROW_10_116
*1136 TAP_TAPCELL_ROW_10_117
*1137 TAP_TAPCELL_ROW_10_118
*1138 TAP_TAPCELL_ROW_10_119
*1139 TAP_TAPCELL_ROW_11_120
*1140 TAP_TAPCELL_ROW_11_121
*1141 TAP_TAPCELL_ROW_11_122
*1142 TAP_TAPCELL_ROW_11_123
*1143 TAP_TAPCELL_ROW_12_124
*1144 TAP_TAPCELL_ROW_12_125
*1145 TAP_TAPCELL_ROW_12_126
*1146 TAP_TAPCELL_ROW_12_127
*1147 TAP_TAPCELL_ROW_13_128
*1148 TAP_TAPCELL_ROW_13_129
*1149 TAP_TAPCELL_ROW_13_130
*1150 TAP_TAPCELL_ROW_13_131
*1151 TAP_TAPCELL_ROW_14_132
*1152 TAP_TAPCELL_ROW_14_133
*1153 TAP_TAPCELL_ROW_14_134
*1154 TAP_TAPCELL_ROW_14_135
*1155 TAP_TAPCELL_ROW_15_136
*1156 TAP_TAPCELL_ROW_15_137
*1157 TAP_TAPCELL_ROW_15_138
*1158 TAP_TAPCELL_ROW_15_139
*1159 TAP_TAPCELL_ROW_16_140
*1160 TAP_TAPCELL_ROW_16_141
*1161 TAP_TAPCELL_ROW_16_142
*1162 TAP_TAPCELL_ROW_16_143
*1163 TAP_TAPCELL_ROW_17_144
*1164 TAP_TAPCELL_ROW_17_145
*1165 TAP_TAPCELL_ROW_17_146
*1166 TAP_TAPCELL_ROW_17_147
*1167 TAP_TAPCELL_ROW_18_148
*1168 TAP_TAPCELL_ROW_18_149
*1169 TAP_TAPCELL_ROW_18_150
*1170 TAP_TAPCELL_ROW_18_151
*1171 TAP_TAPCELL_ROW_19_152
*1172 TAP_TAPCELL_ROW_19_153
*1173 TAP_TAPCELL_ROW_19_154
*1174 TAP_TAPCELL_ROW_19_155
*1175 TAP_TAPCELL_ROW_1_80
*1176 TAP_TAPCELL_ROW_1_81
*1177 TAP_TAPCELL_ROW_1_82
*1178 TAP_TAPCELL_ROW_1_83
*1179 TAP_TAPCELL_ROW_20_156
*1180 TAP_TAPCELL_ROW_20_157
*1181 TAP_TAPCELL_ROW_20_158
*1182 TAP_TAPCELL_ROW_20_159
*1183 TAP_TAPCELL_ROW_21_160
*1184 TAP_TAPCELL_ROW_21_161
*1185 TAP_TAPCELL_ROW_21_162
*1186 TAP_TAPCELL_ROW_21_163
*1187 TAP_TAPCELL_ROW_22_164
*1188 TAP_TAPCELL_ROW_22_165
*1189 TAP_TAPCELL_ROW_22_166
*1190 TAP_TAPCELL_ROW_22_167
*1191 TAP_TAPCELL_ROW_23_168
*1192 TAP_TAPCELL_ROW_23_169
*1193 TAP_TAPCELL_ROW_23_170
*1194 TAP_TAPCELL_ROW_23_171
*1195 TAP_TAPCELL_ROW_24_172
*1196 TAP_TAPCELL_ROW_24_173
*1197 TAP_TAPCELL_ROW_24_174
*1198 TAP_TAPCELL_ROW_24_175
*1199 TAP_TAPCELL_ROW_25_176
*1200 TAP_TAPCELL_ROW_25_177
*1201 TAP_TAPCELL_ROW_25_178
*1202 TAP_TAPCELL_ROW_25_179
*1203 TAP_TAPCELL_ROW_26_180
*1204 TAP_TAPCELL_ROW_26_181
*1205 TAP_TAPCELL_ROW_26_182
*1206 TAP_TAPCELL_ROW_26_183
*1207 TAP_TAPCELL_ROW_27_184
*1208 TAP_TAPCELL_ROW_27_185
*1209 TAP_TAPCELL_ROW_27_186
*1210 TAP_TAPCELL_ROW_27_187
*1211 TAP_TAPCELL_ROW_28_188
*1212 TAP_TAPCELL_ROW_28_189
*1213 TAP_TAPCELL_ROW_28_190
*1214 TAP_TAPCELL_ROW_28_191
*1215 TAP_TAPCELL_ROW_29_192
*1216 TAP_TAPCELL_ROW_29_193
*1217 TAP_TAPCELL_ROW_29_194
*1218 TAP_TAPCELL_ROW_29_195
*1219 TAP_TAPCELL_ROW_2_84
*1220 TAP_TAPCELL_ROW_2_85
*1221 TAP_TAPCELL_ROW_2_86
*1222 TAP_TAPCELL_ROW_2_87
*1223 TAP_TAPCELL_ROW_30_196
*1224 TAP_TAPCELL_ROW_30_197
*1225 TAP_TAPCELL_ROW_30_198
*1226 TAP_TAPCELL_ROW_30_199
*1227 TAP_TAPCELL_ROW_31_200
*1228 TAP_TAPCELL_ROW_31_201
*1229 TAP_TAPCELL_ROW_31_202
*1230 TAP_TAPCELL_ROW_31_203
*1231 TAP_TAPCELL_ROW_32_204
*1232 TAP_TAPCELL_ROW_32_205
*1233 TAP_TAPCELL_ROW_32_206
*1234 TAP_TAPCELL_ROW_32_207
*1235 TAP_TAPCELL_ROW_33_208
*1236 TAP_TAPCELL_ROW_33_209
*1237 TAP_TAPCELL_ROW_33_210
*1238 TAP_TAPCELL_ROW_33_211
*1239 TAP_TAPCELL_ROW_34_212
*1240 TAP_TAPCELL_ROW_34_213
*1241 TAP_TAPCELL_ROW_34_214
*1242 TAP_TAPCELL_ROW_34_215
*1243 TAP_TAPCELL_ROW_35_216
*1244 TAP_TAPCELL_ROW_35_217
*1245 TAP_TAPCELL_ROW_35_218
*1246 TAP_TAPCELL_ROW_35_219
*1247 TAP_TAPCELL_ROW_35_220
*1248 TAP_TAPCELL_ROW_35_221
*1249 TAP_TAPCELL_ROW_35_222
*1250 TAP_TAPCELL_ROW_35_223
*1251 TAP_TAPCELL_ROW_3_88
*1252 TAP_TAPCELL_ROW_3_89
*1253 TAP_TAPCELL_ROW_3_90
*1254 TAP_TAPCELL_ROW_3_91
*1255 TAP_TAPCELL_ROW_4_92
*1256 TAP_TAPCELL_ROW_4_93
*1257 TAP_TAPCELL_ROW_4_94
*1258 TAP_TAPCELL_ROW_4_95
*1259 TAP_TAPCELL_ROW_5_96
*1260 TAP_TAPCELL_ROW_5_97
*1261 TAP_TAPCELL_ROW_5_98
*1262 TAP_TAPCELL_ROW_5_99
*1263 TAP_TAPCELL_ROW_6_100
*1264 TAP_TAPCELL_ROW_6_101
*1265 TAP_TAPCELL_ROW_6_102
*1266 TAP_TAPCELL_ROW_6_103
*1267 TAP_TAPCELL_ROW_7_104
*1268 TAP_TAPCELL_ROW_7_105
*1269 TAP_TAPCELL_ROW_7_106
*1270 TAP_TAPCELL_ROW_7_107
*1271 TAP_TAPCELL_ROW_8_108
*1272 TAP_TAPCELL_ROW_8_109
*1273 TAP_TAPCELL_ROW_8_110
*1274 TAP_TAPCELL_ROW_8_111
*1275 TAP_TAPCELL_ROW_9_112
*1276 TAP_TAPCELL_ROW_9_113
*1277 TAP_TAPCELL_ROW_9_114
*1278 TAP_TAPCELL_ROW_9_115
*1279 _165_
*1280 _166_
*1281 _167_
*1282 _168_
*1283 _169_
*1284 _170_
*1285 _171_
*1286 _172_
*1287 _173_
*1288 _174_
*1289 _175_
*1290 _176_
*1291 _177_
*1292 _178_
*1293 _179_
*1294 _180_
*1295 _181_
*1296 _182_
*1297 _183_
*1298 _184_
*1299 _185_
*1300 _186_
*1301 _187_
*1302 _188_
*1303 _189_
*1304 _190_
*1305 _191_
*1306 _192_
*1307 _193_
*1308 _194_
*1309 _195_
*1310 _196_
*1311 _197_
*1312 _198_
*1313 _199_
*1314 _200_
*1315 _201_
*1316 _202_
*1317 _203_
*1318 _204_
*1319 _205_
*1320 _206_
*1321 _207_
*1322 _208_
*1323 _209_
*1324 _210_
*1325 _211_
*1326 _212_
*1327 _213_
*1328 _214_
*1329 _215_
*1330 _216_
*1331 _217_
*1332 _218_
*1333 _219_
*1334 _220_
*1335 _221_
*1336 _222_
*1337 _223_
*1338 _224_
*1339 _225_
*1340 _226_
*1341 _227_
*1342 _228_
*1343 _229_
*1344 _230_
*1345 _231_
*1346 _232_
*1347 _233_
*1348 _234_
*1349 _235_
*1350 _236_
*1351 _237_
*1352 _238_
*1353 _239_
*1354 _240_
*1355 _241_
*1356 _242_
*1357 _243_
*1358 _244_
*1359 _245_
*1360 _246_
*1361 _247_
*1362 _248_
*1363 _249_
*1364 _250_
*1365 _251_
*1366 _252_
*1367 _253_
*1368 _254_
*1369 _255_
*1370 _256_
*1371 _257_
*1372 _258_
*1373 _259_
*1374 _260_
*1375 _261_
*1376 _262_
*1377 _263_
*1378 _264_
*1379 _265_
*1380 _266_
*1381 _267_
*1382 _268_
*1383 _269_
*1384 _270_
*1385 _271_
*1386 _272_
*1387 _273_
*1388 _274_
*1389 _275_
*1390 _276_
*1391 _277_
*1392 _278_
*1393 _279_
*1394 _280_
*1395 _281_
*1396 _282_
*1397 _283_
*1398 _284_
*1399 _285_
*1400 _286_
*1401 _287_
*1402 _288_
*1403 _289_
*1404 _290_
*1405 _291_
*1406 _292_
*1407 _293_
*1408 _294_
*1409 _295_
*1410 _296_
*1411 _297_
*1412 _298_
*1413 _299_
*1414 _300_
*1415 _301_
*1416 _302_
*1417 _303_
*1418 _304_
*1419 _305_
*1420 _306_
*1421 _307_
*1422 _308_
*1423 _309_
*1424 _310_
*1425 _311_
*1426 _312_
*1427 _313_
*1428 _314_
*1429 _315_
*1430 _316_
*1431 _317_
*1432 _318_
*1433 _319_
*1434 _320_
*1435 _321_
*1436 _322_
*1437 _323_
*1438 _324_
*1439 _325_
*1440 _326_
*1441 _327_
*1442 _328_
*1443 _329_
*1444 _330_
*1445 _331_
*1446 _332_
*1447 _333_
*1448 _334_
*1449 _335_
*1450 _336_
*1451 _337_
*1452 input1
*1453 input10
*1454 input11
*1455 input12
*1456 input13
*1457 input14
*1458 input15
*1459 input16
*1460 input2
*1461 input3
*1462 input4
*1463 input5
*1464 input6
*1465 input7
*1466 input8
*1467 input9
*1468 output17
*1469 output18
*1470 output19
*1471 output20
*1472 output21
*1473 output22
*1474 output23
*1475 output24

*PORTS
A[0] I
A[1] I
A[2] I
A[3] I
A[4] I
A[5] I
A[6] I
A[7] I
B[0] I
B[1] I
B[2] I
B[3] I
B[4] I
B[5] I
B[6] I
B[7] I
OPCODE[0] I
OPCODE[1] I
OPCODE[2] I
OUT[0] O
OUT[1] O
OUT[2] O
OUT[3] O
OUT[4] O
OUT[5] O
OUT[6] O
OUT[7] O

*D_NET *1 0.000614258
*CONN
*P A[0] I
*I *1452:A I *D sky130_fd_sc_hd__buf_2
*CAP
1 A[0] 0.000307129
2 *1452:A 0.000307129
3 *1452:A *1456:A 0
4 *1452:A *1460:A 0
*RES
1 A[0] *1452:A 20.7838 
*END

*D_NET *2 0.00073405
*CONN
*P A[1] I
*I *1460:A I *D sky130_fd_sc_hd__clkbuf_4
*CAP
1 A[1] 0.000367025
2 *1460:A 0.000367025
3 *1460:A *1284:A 0
4 *1460:A *214:12 0
5 *1452:A *1460:A 0
*RES
1 A[1] *1460:A 21.8017 
*END

*D_NET *3 0.00104196
*CONN
*P A[2] I
*I *1284:A I *D sky130_fd_sc_hd__clkbuf_4
*CAP
1 A[2] 0.00052098
2 *1284:A 0.00052098
3 *1284:A *1286:A 0
4 *1284:A *214:12 0
5 *1460:A *1284:A 0
*RES
1 A[2] *1284:A 23.9953 
*END

*D_NET *4 0.00221035
*CONN
*P A[3] I
*I *1286:A I *D sky130_fd_sc_hd__clkbuf_4
*CAP
1 A[3] 0.00100126
2 *1286:A 0.00100126
3 *1286:A *1461:A 0
4 *1286:A *212:10 0
5 *1286:A *213:12 0.000207834
6 *1284:A *1286:A 0
*RES
1 A[3] *1286:A 24.334 
*END

*D_NET *5 0.000676694
*CONN
*P A[4] I
*I *1461:A I *D sky130_fd_sc_hd__clkbuf_2
*CAP
1 A[4] 0.000302234
2 *1461:A 0.000302234
3 *1461:A *1462:A 0
4 *1461:A *214:12 7.22266e-05
5 *1286:A *1461:A 0
*RES
1 A[4] *1461:A 19.7128 
*END

*D_NET *6 0.000725082
*CONN
*P A[5] I
*I *1462:A I *D sky130_fd_sc_hd__clkbuf_2
*CAP
1 A[5] 0.000362541
2 *1462:A 0.000362541
3 *1462:A *1463:A 0