*SPEF "ieee 1481-1999"
*DESIGN "inverter"
*DATE "16:11:20 Friday April 25, 2025"
*VENDOR "The OpenROAD Project"
*PROGRAM "OpenROAD"
*VERSION "b16bda7e82721d10566ff7e2b68f1ff0be9f9e38"
*DESIGN_FLOW "NAME_SCOPE LOCAL" "PIN_CAP NONE"
*DIVIDER /
*DELIMITER :
*BUS_DELIMITER []
*T_UNIT 1 NS
*C_UNIT 1 PF
*R_UNIT 1 OHM
*L_UNIT 1 HENRY

*NAME_MAP
*3 in[0]
*4 in[1]
*5 in[2]
*6 in[3]
*7 in[4]
*8 in[5]
*9 in[6]
*10 in[7]
*11 out[0]
*12 out[1]
*13 out[2]
*14 out[3]
*15 out[4]
*16 out[5]
*17 out[6]
*18 out[7]
*19 _00_
*20 _01_
*21 _02_
*22 _03_
*23 _04_
*24 _05_
*25 _06_
*26 _07_
*27 _08_
*28 _09_
*29 net1
*30 net10
*31 net11
*32 net12
*33 net13
*34 net14
*35 net15
*36 net16
*37 net2
*38 net3
*39 net4
*40 net5
*41 net6
*42 net7
*43 net8
*44 net9
*45 FILLER_0_0_16
*46 FILLER_0_0_29
*47 FILLER_0_0_37
*48 FILLER_0_0_9
*49 FILLER_0_10_18
*50 FILLER_0_10_26
*51 FILLER_0_10_29
*52 FILLER_0_10_42
*53 FILLER_0_10_6
*54 FILLER_0_11_18
*55 FILLER_0_11_30
*56 FILLER_0_11_42
*57 FILLER_0_11_6
*58 FILLER_0_12_13
*59 FILLER_0_12_27
*60 FILLER_0_12_29
*61 FILLER_0_12_37
*62 FILLER_0_1_24
*63 FILLER_0_1_36
*64 FILLER_0_1_9
*65 FILLER_0_2_15
*66 FILLER_0_2_27
*67 FILLER_0_2_29
*68 FILLER_0_2_3
*69 FILLER_0_2_41
*70 FILLER_0_2_47
*71 FILLER_0_3_18
*72 FILLER_0_3_30
*73 FILLER_0_3_39
*74 FILLER_0_3_43
*75 FILLER_0_3_6
*76 FILLER_0_4_15
*77 FILLER_0_4_27
*78 FILLER_0_4_29
*79 FILLER_0_4_3
*80 FILLER_0_4_41
*81 FILLER_0_4_47
*82 FILLER_0_5_18
*83 FILLER_0_5_23
*84 FILLER_0_5_35
*85 FILLER_0_5_43
*86 FILLER_0_5_6
*87 FILLER_0_6_15
*88 FILLER_0_6_29
*89 FILLER_0_6_3
*90 FILLER_0_6_40
*91 FILLER_0_7_13
*92 FILLER_0_7_21
*93 FILLER_0_7_26
*94 FILLER_0_7_3
*95 FILLER_0_7_38
*96 FILLER_0_7_46
*97 FILLER_0_7_7
*98 FILLER_0_8_14
*99 FILLER_0_8_26
*100 FILLER_0_8_29
*101 FILLER_0_8_39
*102 FILLER_0_8_43
*103 FILLER_0_8_6
*104 FILLER_0_9_15
*105 FILLER_0_9_3
*106 FILLER_0_9_32
*107 FILLER_0_9_44
*108 PHY_EDGE_ROW_0_Left_13
*109 PHY_EDGE_ROW_0_Right_0
*110 PHY_EDGE_ROW_10_Left_23
*111 PHY_EDGE_ROW_10_Right_10
*112 PHY_EDGE_ROW_11_Left_24
*113 PHY_EDGE_ROW_11_Right_11
*114 PHY_EDGE_ROW_12_Left_25
*115 PHY_EDGE_ROW_12_Right_12
*116 PHY_EDGE_ROW_1_Left_14
*117 PHY_EDGE_ROW_1_Right_1
*118 PHY_EDGE_ROW_2_Left_15
*119 PHY_EDGE_ROW_2_Right_2
*120 PHY_EDGE_ROW_3_Left_16
*121 PHY_EDGE_ROW_3_Right_3
*122 PHY_EDGE_ROW_4_Left_17
*123 PHY_EDGE_ROW_4_Right_4
*124 PHY_EDGE_ROW_5_Left_18
*125 PHY_EDGE_ROW_5_Right_5
*126 PHY_EDGE_ROW_6_Left_19
*127 PHY_EDGE_ROW_6_Right_6
*128 PHY_EDGE_ROW_7_Left_20
*129 PHY_EDGE_ROW_7_Right_7
*130 PHY_EDGE_ROW_8_Left_21
*131 PHY_EDGE_ROW_8_Right_8
*132 PHY_EDGE_ROW_9_Left_22
*133 PHY_EDGE_ROW_9_Right_9
*134 TAP_TAPCELL_ROW_0_26
*135 TAP_TAPCELL_ROW_10_31
*136 TAP_TAPCELL_ROW_12_32
*137 TAP_TAPCELL_ROW_2_27
*138 TAP_TAPCELL_ROW_4_28
*139 TAP_TAPCELL_ROW_6_29
*140 TAP_TAPCELL_ROW_8_30
*141 _10_
*142 _11_
*143 _12_
*144 _13_
*145 _14_
*146 _15_
*147 _16_
*148 _17_
*149 _18_
*150 _19_
*151 _20_
*152 _21_
*153 _22_
*154 _23_
*155 _24_
*156 _25_
*157 _26_
*158 _27_
*159 input1
*160 input2
*161 input3
*162 input4
*163 input5
*164 input6
*165 input7
*166 input8
*167 output10
*168 output11
*169 output12
*170 output13
*171 output14
*172 output15
*173 output16
*174 output9

*PORTS
in[0] I
in[1] I
in[2] I
in[3] I
in[4] I
in[5] I
in[6] I
in[7] I
out[0] O
out[1] O
out[2] O
out[3] O
out[4] O
out[5] O
out[6] O
out[7] O

*D_NET *3 0.00105377
*CONN
*P in[0] I
*I *159:A I *D sky130_fd_sc_hd__dlymetal6s2s_1
*CAP
1 in[0] 0.000526885
2 *159:A 0.000526885
3 *159:A *160:A 0
*RES
1 in[0] *159:A 24.1943 
*END

*D_NET *4 0.000762532
*CONN
*P in[1] I
*I *160:A I *D sky130_fd_sc_hd__buf_1
*CAP
1 in[1] 0.000381266
2 *160:A 0.000381266
3 *160:A *161:A 0
4 *159:A *160:A 0
*RES
1 in[1] *160:A 22.3017 
*END

*D_NET *5 0.000572832
*CONN
*P in[2] I
*I *161:A I *D sky130_fd_sc_hd__buf_1
*CAP
1 in[2] 0.000286416
2 *161:A 0.000286416
3 *161:A *162:A 0
4 *160:A *161:A 0
*RES
1 in[2] *161:A 20.4803 
*END

*D_NET *6 0.000694675
*CONN
*P in[3] I
*I *162:A I *D sky130_fd_sc_hd__clkbuf_1
*CAP
1 in[3] 0.000347337
2 *162:A 0.000347337
3 *162:A *163:A 0
4 *162:A *41:23 0
5 *161:A *162:A 0
*RES
1 in[3] *162:A 21.6946 
*END

*D_NET *7 0.000616923
*CONN
*P in[4] I
*I *163:A I *D sky130_fd_sc_hd__buf_1
*CAP
1 in[4] 0.000306616
2 *163:A 0.000306616
3 *163:A *164:A 0
4 *163:A *40:8 3.69047e-06
5 *163:A *40:23 0
6 *162:A *163:A 0
*RES
1 in[4] *163:A 20.7838 
*END

*D_NET *8 0.000726137
*CONN
*P in[5] I
*I *164:A I *D sky130_fd_sc_hd__buf_1
*CAP
1 in[5] 0.000363069
2 *164:A 0.000363069
3 *164:A *152:A1 0
4 *164:A *165:A 0
5 *163:A *164:A 0
*RES
1 in[5] *164:A 21.9981 
*END

*D_NET *9 0.000563768
*CONN
*P in[6] I
*I *165:A I *D sky130_fd_sc_hd__buf_1
*CAP
1 in[6] 0.000281884
2 *165:A 0.000281884
3 *165:A *166:A 0
4 *164:A *165:A 0
*RES
1 in[6] *165:A 20.4803 
*END

*D_NET *10 0.00123174
*CONN
*P in[7] I
*I *166:A I *D sky130_fd_sc_hd__buf_1
*CAP
1 in[7] 0.000615872
2 *166:A 0.000615872
3 *165:A *166:A 0
*RES
1 in[7] *166:A 25.0176 
*END

*D_NET *11 0.00116601
*CONN
*P out[0] O
*I *174:X O *D sky130_fd_sc_hd__buf_2
*CAP
1 out[0] 0.000583005
2 *174:X 0.000583005
3 out[0] out[1] 0
*RES
1 *174:X out[0] 23.8754 
*END

*D_NET *12 0.000438356
*CONN
*P out[1] O
*I *167:X O *D sky130_fd_sc_hd__buf_2
*CAP
1 out[1] 0.000219178
2 *167:X 0.000219178
3 out[1] out[2] 0
4 out[0] out[1] 0
*RES
1 *167:X out[1] 18.1229 
*END

*D_NET *13 0.000440675
*CONN
*P out[2] O
*I *168:X O *D sky130_fd_sc_hd__buf_2
*CAP
1 out[2] 0.00021424
2 *168:X 0.00021424
3 out[2] out[3] 0
4 out[2] *168:A 1.21955e-05
5 out[1] out[2] 0
*RES
1 *168:X out[2] 18.1229 
*END

*D_NET *14 0.000586841
*CONN
*P out[3] O
*I *169:X O *D sky130_fd_sc_hd__buf_2
*CAP
1 out[3] 0.00029342
2 *169:X 0.00029342
3 out[3] out[4] 0
4 out[3] *167:A 0
5 out[3] *169:A 0
6 out[2] out[3] 0
*RES
1 *169:X out[3] 19.3371 
*END

*D_NET *15 0.000440675
*CONN
*P out[4] O
*I *170:X O *D sky130_fd_sc_hd__buf_2
*CAP
1 out[4] 0.00021424
2 *170:X 0.00021424
3 out[4] out[5] 0
4 out[4] *170:A 1.21955e-05
5 out[3] out[4] 0
*RES
1 *170:X out[4] 18.1229 
*END

*D_NET *16 0.000586236
*CONN
*P out[5] O
*I *171:X O *D sky130_fd_sc_hd__buf_2
*CAP
1 out[5] 0.000271635
2 *171:X 0.000271635
3 out[5] out[6] 0
4 out[5] *173:A 4.29654e-05
5 out[4] out[5] 0
*RES
1 *171:X out[5] 19.3371 
*END

*D_NET *17 0.000760908
*CONN
*P out[6] O
*I *172:X O *D sky130_fd_sc_hd__buf_2
*CAP
1 out[6] 0.000380454
2 *172:X 0.000380454
3 out[6] out[7] 0
4 out[5] out[6] 0
*RES
1 *172:X out[6] 18.5553 
*END

*D_NET *18 0.00103775
*CONN
*P out[7] O
*I *173:X O *D sky130_fd_sc_hd__clkbuf_4
*CAP
1 out[7] 0.000518877
2 *173:X 0.000518877
3 out[6] out[7] 0
*RES
1 *173:X out[7] 24.4258 
*END

*D_NET *19 0.00209149
*CONN
*I *142:B I *D sky130_fd_sc_hd__xnor2_1
*I *157:A I *D sky130_fd_sc_hd__nor2_1
*I *141:Y O *D sky130_fd_sc_hd__nor2_1
*CAP
1 *142:B 0.000218165
2 *157:A 0
3 *141:Y 0.000273361
4 *19:10 0.000491526
5 *142:B *146:A 0
6 *142:B *29:41 0.000368212
7 *142:B *37:25 6.80531e-05
8 *19:10 *157:B 5.84267e-05
9 *19:10 *29:41 0.000122097
10 *19:10 *29:47 0.000271918
11 *19:10 *37:25 0.000219734
*RES
1 *141:Y *19:10 19.9429 
2 *19:10 *157:A 13.8 
3 *19:10 *142:B 19.1393 
*END

*D_NET *20 0.00148406
*CONN
*I *145:A_N I *D sky130_fd_sc_hd__and2b_1
*I *143:X O *D sky130_fd_sc_hd__o31a_1
*CAP
1 *145:A_N 0.000274854
2 *143:X 0.000274854
3 *145:A_N *145:B 0
4 *145:A_N *29:16 0.000502056
5 *145:A_N *29:41 0.000138881
6 *145:A_N *37:12 0.000293415
*RES
1 *143:X *145:A_N 35.1536 
*END

*D_NET *21 0.00828906
*CONN
*I *148:B I *D sky130_fd_sc_hd__and2_1
*I *145:B I *D sky130_fd_sc_hd__and2b_1
*I *151:D I *D sky130_fd_sc_hd__or4_1
*I *147:B I *D sky130_fd_sc_hd__nor2_1
*I *152:A3 I *D sky130_fd_sc_hd__o31ai_1
*I *144:X O *D sky130_fd_sc_hd__or4_2
*CAP
1 *148:B 0.000158295
2 *145:B 0.000472696
3 *151:D 0.000133479
4 *147:B 4.37109e-05
5 *152:A3 0.000229188
6 *144:X 6.29555e-05
7 *21:49 0.000773562
8 *21:34 0.000597661
9 *21:10 0.00084523
10 *21:6 0.000956898
11 *145:B *146:A 0
12 *145:B *29:16 0
13 *145:B *37:12 6.58195e-05
14 *147:B *153:B 0.000175526
15 *147:B *41:23 0.000169405
16 *148:B *148:A 9.60939e-05
17 *148:B *149:B 5.03772e-05
18 *151:D *148:A 6.01685e-05
19 *151:D *151:B 0.000140933
20 *151:D *151:C 0.000183726
21 *152:A3 *151:C 0
22 *152:A3 *152:A2 0.00032246
23 *152:A3 *153:B 0.000955138
24 *152:A3 *41:23 0.000690294
25 *152:A3 *42:14 1.02504e-05
26 *21:6 *37:35 1.97695e-05
27 *21:10 *144:B 9.41642e-05
28 *21:10 *144:D 2.59355e-05
29 *21:10 *37:35 4.51726e-05
30 *21:34 *144:B 1.24368e-05
31 *21:34 *146:A 8.31599e-05
32 *21:34 *149:A 0.000126446
33 *21:34 *149:B 3.87848e-05
34 *21:34 *155:B 0.000148911
35 *21:34 *25:10 0.000146474
36 *21:34 *40:40 7.17932e-05
37 *21:49 *146:A 0.000178819
38 *21:49 *148:A 0
39 *21:49 *149:B 0.000103325
40 *145:A_N *145:B 0
*RES
1 *144:X *21:6 10.6393 
2 *21:6 *21:10 12.8393 
3 *21:10 *152:A3 26.3714 
4 *21:10 *147:B 16.05 
5 *21:6 *21:34 12.0714 
6 *21:34 *151:D 17.1214 
7 *21:34 *21:49 8.875 
8 *21:49 *145:B 26.8893 
9 *21:49 *148:B 12.3 
*END

*D_NET *22 0.00279541
*CONN
*I *146:A I *D sky130_fd_sc_hd__clkbuf_1
*I *145:X O *D sky130_fd_sc_hd__and2b_1
*CAP
1 *146:A 0.00105574
2 *145:X 0.00105574
3 *146:A *148:A 0
4 *146:A *149:A 5.90443e-06
5 *146:A *155:B 0.00017309
6 *146:A *173:A 2.89016e-05
7 *146:A *25:10 0.000138946
8 *146:A *29:41 5.74933e-05
9 *146:A *29:47 0
10 *146:A *37:12 0
11 *146:A *43:12 1.76135e-05
12 *146:A *44:12 0
13 *142:B *146:A 0
14 *145:B *146:A 0
15 *21:34 *146:A 8.31599e-05
16 *21:49 *146:A 0.000178819
*RES
1 *145:X *146:A 47.1893 
*END

*D_NET *23 0.00442608
*CONN
*I *149:A I *D sky130_fd_sc_hd__nor2_1
*I *150:B I *D sky130_fd_sc_hd__xnor2_1
*I *147:Y O *D sky130_fd_sc_hd__nor2_1
*CAP
1 *149:A 0.000605512
2 *150:B 0.000173586
3 *147:Y 0.000106188
4 *23:6 0.000885286
5 *149:A *149:B 0.000397233
6 *149:A *153:A 0.000903454
7 *149:A *154:A 0.000397704
8 *149:A *155:B 1.3142e-05
9 *149:A *40:40 2.42516e-05
10 *149:A *43:12 0.000565832
11 *150:B *151:C 7.01265e-05
12 *150:B *153:B 1.97381e-05
13 *150:B *41:23 0
14 *23:6 *153:A 9.83388e-05
15 *23:6 *153:B 2.12087e-05
16 *23:6 *40:40 1.21258e-05
17 *146:A *149:A 5.90443e-06
18 *21:34 *149:A 0.000126446
*RES
1 *147:Y *23:6 11.0679 
2 *23:6 *150:B 21.4607 
3 *23:6 *149:A 37.1036 
*END

*D_NET *24 0.00248719
*CONN
*I *149:B I *D sky130_fd_sc_hd__nor2_1
*I *148:X O *D sky130_fd_sc_hd__and2_1
*CAP
1 *149:B 0.000540712
2 *148:X 0.000540712
3 *149:B *148:A 0.000161673
4 *149:B *34:18 0.000496998
5 *149:B *40:40 0.000146474
6 *149:B *44:12 1.09026e-05
7 *148:B *149:B 5.03772e-05
8 *149:A *149:B 0.000397233
9 *21:34 *149:B 3.87848e-05
10 *21:49 *149:B 0.000103325
*RES
1 *148:X *149:B 44.7607 
*END

*D_NET *25 0.00312993
*CONN
*I *153:A I *D sky130_fd_sc_hd__and2_1
*I *155:B I *D sky130_fd_sc_hd__xor2_1
*I *151:X O *D sky130_fd_sc_hd__or4_1
*CAP
1 *153:A 0.00024332
2 *155:B 5.67727e-05
3 *151:X 0.000124968
4 *25:10 0.00042506
5 *153:A *153:B 9.83388e-05
6 *153:A *40:40 0.000463026
7 *25:10 *34:18 9.60939e-05
8 *146:A *155:B 0.00017309
9 *146:A *25:10 0.000138946
10 *149:A *153:A 0.000903454
11 *149:A *155:B 1.3142e-05
12 *21:34 *155:B 0.000148911
13 *21:34 *25:10 0.000146474
14 *23:6 *153:A 9.83388e-05
*RES
1 *151:X *25:10 16.6929 
2 *25:10 *155:B 16.05 
3 *25:10 *153:A 23.3714 
*END

*D_NET *26 0.00249606
*CONN
*I *153:B I *D sky130_fd_sc_hd__and2_1
*I *152:Y O *D sky130_fd_sc_hd__o31ai_1
*CAP
1 *153:B 0.000543013
2 *152:Y 0.000543013
3 *153:B *151:C 0
4 *153:B *40:40 0.000140088
5 *147:B *153:B 0.000175526
6 *150:B *153:B 1.97381e-05
7 *152:A3 *153:B 0.000955138
8 *153:A *153:B 9.83388e-05
9 *23:6 *153:B 2.12087e-05
*RES
1 *152:Y *153:B 43.0464 
*END

*D_NET *27 0.0035976
*CONN
*I *154:A I *D sky130_fd_sc_hd__clkbuf_1
*I *153:X O *D sky130_fd_sc_hd__and2_1
*CAP
1 *154:A 0.000564901
2 *153:X 0.000564901
3 *154:A *144:C 0.000125724
4 *154:A *144:D 0.000148911
5 *154:A *156:A 0.000787447
6 *154:A *156:B 0.000373955
7 *154:A *157:B 9.07004e-05
8 *154:A *29:51 0.000413492
9 *154:A *37:35 0.000129868
10 *149:A *154:A 0.000397704
*RES
1 *153:X *154:A 45.2071 
*END

*D_NET *28 0.00350488
*CONN
*I *157:B I *D sky130_fd_sc_hd__nor2_1
*I *156:X O *D sky130_fd_sc_hd__and2_1
*CAP
1 *157:B 0.000813889
2 *156:X 0.000813889
3 *157:B *144:C 0.000197276
4 *157:B *156:B 0.000515037
5 *157:B *29:47 1.69115e-05
6 *157:B *29:51 0.00042032
7 *157:B *37:25 0.00022217
8 *157:B *43:12 0.000356261
9 *154:A *157:B 9.07004e-05
10 *19:10 *157:B 5.84267e-05
*RES
1 *156:X *157:B 47.5286 
*END

*D_NET *29 0.00886234
*CONN
*I *144:B I *D sky130_fd_sc_hd__or4_2
*I *141:B I *D sky130_fd_sc_hd__nor2_1
*I *158:A I *D sky130_fd_sc_hd__clkbuf_1
*I *156:B I *D sky130_fd_sc_hd__and2_1
*I *143:A2 I *D sky130_fd_sc_hd__o31a_1
*I *159:X O *D sky130_fd_sc_hd__dlymetal6s2s_1
*CAP
1 *144:B 7.90104e-05
2 *141:B 0
3 *158:A 0.000377203
4 *156:B 0.000345712
5 *143:A2 1.91209e-05
6 *159:X 0.000679628
7 *29:51 0.000814431
8 *29:47 0.000357741
9 *29:41 0.000741434
10 *29:16 0.00109495
11 *143:A2 *142:A 0
12 *156:B *156:A 0.000415517
13 *156:B *43:12 4.58976e-05
14 *158:A *170:A 4.01768e-05
15 *29:16 *143:A3 1.56e-05
16 *29:16 *143:B1 1.24368e-05
17 *29:41 *142:A 1.21258e-05
18 *29:41 *143:A3 1.21289e-05
19 *29:41 *151:C 4.58194e-05
20 *29:41 *34:18 9.60875e-05
21 *29:41 *37:25 0.000339513
22 *29:41 *38:10 1.08359e-05
23 *29:47 *43:12 0
24 *142:B *29:41 0.000368212
25 *145:A_N *29:16 0.000502056
26 *145:A_N *29:41 0.000138881
27 *145:B *29:16 0
28 *146:A *29:41 5.74933e-05
29 *146:A *29:47 0
30 *154:A *156:B 0.000373955
31 *154:A *29:51 0.000413492
32 *157:B *156:B 0.000515037
33 *157:B *29:47 1.69115e-05
34 *157:B *29:51 0.00042032
35 *19:10 *29:41 0.000122097
36 *19:10 *29:47 0.000271918
37 *21:10 *144:B 9.41642e-05
38 *21:34 *144:B 1.24368e-05
*RES
1 *159:X *29:16 31.6393 
2 *29:16 *143:A2 9.72857 
3 *29:16 *29:41 24.1071 
4 *29:41 *29:47 9.42857 
5 *29:47 *29:51 9.78571 
6 *29:51 *156:B 25.0321 
7 *29:51 *158:A 20.1036 
8 *29:47 *141:B 9.3 
9 *29:41 *144:B 14.7464 
*END

*D_NET *30 0.00316155
*CONN
*I *167:A I *D sky130_fd_sc_hd__buf_2
*I *157:Y O *D sky130_fd_sc_hd__nor2_1
*CAP
1 *167:A 0.00116987
2 *157:Y 0.00116987
3 *167:A *168:A 4.57445e-05
4 *167:A *169:A 6.5185e-05
5 *167:A *40:40 0.000429934
6 *167:A *44:12 0.000280942
7 out[3] *167:A 0
*RES
1 *157:Y *167:A 47.4214 
*END

*D_NET *31 0.00121457
*CONN
*I *168:A I *D sky130_fd_sc_hd__buf_2
*I *142:Y O *D sky130_fd_sc_hd__xnor2_1
*CAP
1 *168:A 0.000578316
2 *142:Y 0.000578316
3 out[2] *168:A 1.21955e-05
4 *167:A *168:A 4.57445e-05
*RES
1 *142:Y *168:A 34.7071 
*END

*D_NET *32 0.000941272
*CONN
*I *169:A I *D sky130_fd_sc_hd__buf_2
*I *146:X O *D sky130_fd_sc_hd__clkbuf_1
*CAP
1 *169:A 0.000277174
2 *146:X 0.000277174
3 *169:A *44:12 0.000321738
4 out[3] *169:A 0
5 *167:A *169:A 6.5185e-05
*RES
1 *146:X *169:A 33.85 
*END

*D_NET *33 0.00152392
*CONN
*I *170:A I *D sky130_fd_sc_hd__buf_2
*I *149:Y O *D sky130_fd_sc_hd__nor2_1
*CAP
1 *170:A 0.000478895
2 *149:Y 0.000478895
3 *170:A *173:A 0.000347347
4 *170:A *34:18 0.000166416
5 out[4] *170:A 1.21955e-05
6 *158:A *170:A 4.01768e-05
*RES
1 *149:Y *170:A 36.2071 
*END

*D_NET *34 0.00464607
*CONN
*I *171:A I *D sky130_fd_sc_hd__buf_2
*I *150:Y O *D sky130_fd_sc_hd__xnor2_1
*CAP
1 *171:A 0
2 *150:Y 0.00110249
3 *34:18 0.00110249
4 *34:18 *148:A 8.46829e-05
5 *34:18 *151:C 0.000215665
6 *34:18 *39:10 0.000312998
7 *34:18 *40:40 5.33005e-05
8 *34:18 *44:12 0.000918834
9 *149:B *34:18 0.000496998
10 *170:A *34:18 0.000166416
11 *25:10 *34:18 9.60939e-05
12 *29:41 *34:18 9.60875e-05
*RES
1 *150:Y *34:18 43.4964 
2 *34:18 *171:A 9.3 
*END

*D_NET *35 0.00133703
*CONN
*I *172:A I *D sky130_fd_sc_hd__buf_2
*I *154:X O *D sky130_fd_sc_hd__clkbuf_1
*CAP
1 *172:A 0.000668517
2 *154:X 0.000668517
3 *172:A *173:A 0
4 *172:A *43:12 0
*RES
1 *154:X *172:A 35.8321 
*END

*D_NET *36 0.00226126
*CONN
*I *173:A I *D sky130_fd_sc_hd__clkbuf_4
*I *155:X O *D sky130_fd_sc_hd__xor2_1
*CAP
1 *173:A 0.000921022
2 *155:X 0.000921022
3 *173:A *44:12 0
4 out[5] *173:A 4.29654e-05
5 *146:A *173:A 2.89016e-05
6 *170:A *173:A 0.000347347
7 *172:A *173:A 0
*RES
1 *155:X *173:A 45.6 
*END

*D_NET *37 0.00680492
*CONN
*I *144:A I *D sky130_fd_sc_hd__or4_2
*I *141:A I *D sky130_fd_sc_hd__nor2_1
*I *156:A I *D sky130_fd_sc_hd__and2_1
*I *143:A1 I *D sky130_fd_sc_hd__o31a_1
*I *160:X O *D sky130_fd_sc_hd__buf_1
*CAP
1 *144:A 0
2 *141:A 0
3 *156:A 0.000542909
4 *143:A1 0
5 *160:X 0.000641204
6 *37:35 0.000744564
7 *37:25 0.000451865
8 *37:12 0.000891415
9 *156:A *43:12 0.000402915
10 *37:12 *143:B1 4.46186e-06
11 *37:12 *38:10 0.000121573
12 *37:25 *142:A 2.59355e-05
13 *37:25 *143:A3 2.89016e-05
14 *37:25 *144:C 0.000230855
15 *37:25 *38:10 5.66157e-05
16 *37:35 *144:D 5.52238e-05
17 *142:B *37:25 6.80531e-05
18 *145:A_N *37:12 0.000293415
19 *145:B *37:12 6.58195e-05
20 *146:A *37:12 0
21 *154:A *156:A 0.000787447
22 *154:A *37:35 0.000129868
23 *156:B *156:A 0.000415517
24 *157:B *37:25 0.00022217
25 *19:10 *37:25 0.000219734
26 *21:6 *37:35 1.97695e-05
27 *21:10 *37:35 4.51726e-05
28 *29:41 *37:25 0.000339513
*RES
1 *160:X *37:12 29.7821 
2 *37:12 *143:A1 9.3 
3 *37:12 *37:25 17.6607 
4 *37:25 *37:35 8.76786 
5 *37:35 *156:A 29.8893 
6 *37:35 *141:A 13.8 
7 *37:25 *144:A 9.3 
*END

*D_NET *38 0.00356142
*CONN
*I *142:A I *D sky130_fd_sc_hd__xnor2_1
*I *143:A3 I *D sky130_fd_sc_hd__o31a_1
*I *144:C I *D sky130_fd_sc_hd__or4_2
*I *161:X O *D sky130_fd_sc_hd__buf_1
*CAP
1 *142:A 0.000163425
2 *143:A3 7.67559e-05
3 *144:C 0.000244594
4 *161:X 0.000774602
5 *38:25 0.000240181
6 *38:10 0.0010192
7 *143:A3 *143:B1 6.05161e-06
8 *144:C *143:B1 8.08808e-05
9 *144:C *144:D 0.000104077
10 *38:10 *143:B1 1.40849e-05
11 *143:A2 *142:A 0
12 *154:A *144:C 0.000125724
13 *157:B *144:C 0.000197276
14 *29:16 *143:A3 1.56e-05
15 *29:41 *142:A 1.21258e-05
16 *29:41 *143:A3 1.21289e-05
17 *29:41 *38:10 1.08359e-05
18 *37:12 *38:10 0.000121573
19 *37:25 *142:A 2.59355e-05
20 *37:25 *143:A3 2.89016e-05
21 *37:25 *144:C 0.000230855
22 *37:25 *38:10 5.66157e-05
*RES
1 *161:X *38:10 23.5679 
2 *38:10 *144:C 21.2643 
3 *38:10 *38:25 4.5 
4 *38:25 *143:A3 10.6571 
5 *38:25 *142:A 11.8 
*END

*D_NET *39 0.00253799
*CONN
*I *143:B1 I *D sky130_fd_sc_hd__o31a_1
*I *144:D I *D sky130_fd_sc_hd__or4_2
*I *162:X O *D sky130_fd_sc_hd__clkbuf_1
*CAP
1 *143:B1 0.000183261
2 *144:D 0.00024611
3 *162:X 0.000260431
4 *39:10 0.000689801
5 *39:10 *151:B 3.78876e-05
6 *39:10 *151:C 0.000169468
7 *39:10 *41:23 0.00018597
8 *143:A3 *143:B1 6.05161e-06
9 *144:C *143:B1 8.08808e-05
10 *144:C *144:D 0.000104077
11 *154:A *144:D 0.000148911
12 *21:10 *144:D 2.59355e-05
13 *29:16 *143:B1 1.24368e-05
14 *34:18 *39:10 0.000312998
15 *37:12 *143:B1 4.46186e-06
16 *37:35 *144:D 5.52238e-05
17 *38:10 *143:B1 1.40849e-05
*RES
1 *162:X *39:10 20.5143 
2 *39:10 *144:D 19.0143 
3 *39:10 *143:B1 17.4964 
*END

*D_NET *40 0.00633126
*CONN
*I *148:A I *D sky130_fd_sc_hd__and2_1
*I *151:A I *D sky130_fd_sc_hd__or4_1
*I *147:A I *D sky130_fd_sc_hd__nor2_1
*I *152:A1 I *D sky130_fd_sc_hd__o31ai_1
*I *163:X O *D sky130_fd_sc_hd__buf_1
*CAP
1 *148:A 0.000290177
2 *151:A 0
3 *147:A 0
4 *152:A1 0.00035845
5 *163:X 8.90341e-05
6 *40:40 0.00100279
7 *40:23 0.000988352
8 *40:8 0.000723218
9 *148:A *151:C 5.52302e-05
10 *148:A *44:12 0.000387425
11 *152:A1 *152:A2 0.000176096
12 *152:A1 *41:23 0.000207024
13 *40:23 *41:23 0.000252853
14 *40:40 *151:C 5.33005e-05
15 *146:A *148:A 0
16 *148:B *148:A 9.60939e-05
17 *149:A *40:40 2.42516e-05
18 *149:B *148:A 0.000161673
19 *149:B *40:40 0.000146474
20 *151:D *148:A 6.01685e-05
21 *153:A *40:40 0.000463026
22 *153:B *40:40 0.000140088
23 *163:A *40:8 3.69047e-06
24 *163:A *40:23 0
25 *164:A *152:A1 0
26 *167:A *40:40 0.000429934
27 *21:34 *40:40 7.17932e-05
28 *21:49 *148:A 0
29 *23:6 *40:40 1.21258e-05
30 *34:18 *148:A 8.46829e-05
31 *34:18 *40:40 5.33005e-05
*RES
1 *163:X *40:8 14.7464 
2 *40:8 *152:A1 22.7286 
3 *40:8 *40:23 10.9286 
4 *40:23 *147:A 9.3 
5 *40:23 *40:40 24.3571 
6 *40:40 *151:A 9.3 
7 *40:40 *148:A 26.425 
*END

*D_NET *41 0.00547878
*CONN
*I *151:B I *D sky130_fd_sc_hd__or4_1
*I *150:A I *D sky130_fd_sc_hd__xnor2_1
*I *152:A2 I *D sky130_fd_sc_hd__o31ai_1
*I *164:X O *D sky130_fd_sc_hd__buf_1
*CAP
1 *151:B 0.000868759
2 *150:A 0
3 *152:A2 0.000110717
4 *164:X 0
5 *41:23 0.00132254
6 *41:6 0.000564495
7 *151:B *151:C 0.00042935
8 *147:B *41:23 0.000169405
9 *150:B *41:23 0
10 *151:D *151:B 0.000140933
11 *152:A1 *152:A2 0.000176096
12 *152:A1 *41:23 0.000207024
13 *152:A3 *152:A2 0.00032246
14 *152:A3 *41:23 0.000690294
15 *162:A *41:23 0
16 *39:10 *151:B 3.78876e-05
17 *39:10 *41:23 0.00018597
18 *40:23 *41:23 0.000252853
*RES
1 *164:X *41:6 13.8 
2 *41:6 *152:A2 18.2018 
3 *41:6 *41:23 19.1429 
4 *41:23 *150:A 9.3 
5 *41:23 *151:B 21.1393 
*END

*D_NET *42 0.00445186
*CONN
*I *151:C I *D sky130_fd_sc_hd__or4_1
*I *152:B1 I *D sky130_fd_sc_hd__o31ai_1
*I *165:X O *D sky130_fd_sc_hd__buf_1
*CAP
1 *151:C 0.00137345
2 *152:B1 0
3 *165:X 0.000236016
4 *42:14 0.00160946
5 *148:A *151:C 5.52302e-05
6 *150:B *151:C 7.01265e-05
7 *151:B *151:C 0.00042935
8 *151:D *151:C 0.000183726
9 *152:A3 *151:C 0
10 *152:A3 *42:14 1.02504e-05
11 *153:B *151:C 0
12 *29:41 *151:C 4.58194e-05
13 *34:18 *151:C 0.000215665
14 *39:10 *151:C 0.000169468
15 *40:40 *151:C 5.33005e-05
*RES
1 *165:X *42:14 21.7286 
2 *42:14 *152:B1 9.3 
3 *42:14 *151:C 47.175 
*END

*D_NET *43 0.00363268
*CONN
*I *155:A I *D sky130_fd_sc_hd__xor2_1
*I *166:X O *D sky130_fd_sc_hd__buf_1
*CAP
1 *155:A 0
2 *166:X 0.00112208
3 *43:12 0.00112208
4 *43:12 *44:12 0
5 *146:A *43:12 1.76135e-05
6 *149:A *43:12 0.000565832
7 *156:A *43:12 0.000402915
8 *156:B *43:12 4.58976e-05
9 *157:B *43:12 0.000356261
10 *172:A *43:12 0
11 *29:47 *43:12 0
*RES
1 *166:X *43:12 42.3714 
2 *43:12 *155:A 9.3 
*END

*D_NET *44 0.00364964
*CONN
*I *174:A I *D sky130_fd_sc_hd__buf_2
*I *158:X O *D sky130_fd_sc_hd__clkbuf_1
*CAP
1 *174:A 0
2 *158:X 0.0008649
3 *44:12 0.0008649
4 *146:A *44:12 0
5 *148:A *44:12 0.000387425
6 *149:B *44:12 1.09026e-05
7 *167:A *44:12 0.000280942
8 *169:A *44:12 0.000321738
9 *173:A *44:12 0
10 *34:18 *44:12 0.000918834
11 *43:12 *44:12 0
*RES
1 *158:X *44:12 41.5321 
2 *44:12 *174:A 9.3 
*END
